*SOIL-PLANT-ATMOSPHERE MODULE OUTPUT FILE

*DSSAT Cropping System Model Ver. 4.6.1.000 -release      DEC 06, 2018; 16:51:38
                                                                                
*RUN   1        : Rice component            RICER046 SSKT8601    1              
 MODEL          : RICER046 - Rice                                               
 EXPERIMENT     : SSKT8601 SQ CE-FALLOW, 30 YEARS, 15 REPS, NO N                
 DATA PATH      : C:\DSSAT46\Sequence\                                          
 TREATMENT  1   : Rice component            RICER046                            
  
!                                                                                                                                                Soil evaporation (mm/d) by soil depth (cm):
!                                                                                                                                                0-5    5-15   15-30   30-45   45-60   60-75   75-90  90-105 105-120
@YEAR DOY   DAS   SRAA  TMAXA  TMINA   EOAA   EOPA   EOSA   ETAA   EPAA   ESAA   EFAA   EMAA    EOAC    ETAC    EPAC    ESAC    EFAC    EMAC    ES1D    ES2D    ES3D    ES4D    ES5D    ES6D    ES7D    ES8D    ES9D
 1986 184     1  25.80  34.50  25.50  7.764  0.000  7.764  1.644  0.000  1.644  0.000  0.000    7.76    1.64    0.00    1.64    0.00    0.00   1.376   0.179   0.051   0.017   0.009   0.005   0.003   0.002   0.002
 1986 190     7  20.53  33.22  25.33  6.061  0.000  6.061  3.135  0.000  3.135  0.000  0.000   44.13   20.45    0.00   20.45    0.00    0.00   1.183   0.165   0.049   0.017   0.008   0.005   0.003   0.002   0.002
 1986 197    14  18.37  33.14  24.80  5.353  0.000  5.353  1.260  0.000  1.260  0.000  0.000   81.60   29.27    0.00   29.27    0.00    0.00   0.757   0.158   0.049   0.017   0.008   0.005   0.003   0.002   0.002
 1986 204    21  12.56  29.67  23.54  3.568  0.000  3.568  3.568  0.000  3.568  0.000  0.000  106.58   54.25    0.00   54.25    0.00    0.00   0.690   0.516   0.398   0.266   0.213   0.180   0.158   0.138   0.119
 1986 211    28  21.81  32.51  23.57  6.337  0.000  6.337  5.384  0.000  5.384  0.000  0.000  150.94   91.94    0.00   91.94    0.00    0.00   0.941   0.162   0.048   0.017   0.008   0.005   0.003   0.002   0.002
 1986 218    35  20.20  32.70  24.97  5.825  0.000  5.825  1.090  0.000  1.090  0.000  0.000  191.71   99.57    0.00   99.57    0.00    0.00   1.002   0.155   0.048   0.017   0.008   0.005   0.003   0.002   0.002
 1986 225    42  14.30  30.97  24.47  4.124  0.000  4.124  4.124  0.000  4.124  0.000  0.000  220.58  128.44    0.00  128.44    0.00    0.00   0.711   0.597   0.492   0.328   0.257   0.212   0.186   0.167   0.149
 1986 232    49  18.43  32.39  25.19  5.391  0.000  5.391  5.350  0.000  5.350  0.000  0.000  258.32  165.89    0.00  165.89    0.00    0.00   1.174   0.843   0.665   0.438   0.346   0.287   0.252   0.226   0.203
 1986 239    56  15.93  31.16  25.04  4.615  0.000  4.615  3.302  0.000  3.302  0.000  0.000  290.62  189.00    0.00  189.00    0.00    0.00   1.347   1.032   0.788   0.534   0.418   0.347   0.282   0.244   0.215
 1986 246    63  19.66  32.40  24.43  5.757  0.001  5.755  5.757  0.001  5.755  0.000  0.000  330.92  229.30    0.01  229.29    0.00    0.00   1.548   1.210   0.942   0.644   0.484   0.390   0.339   0.304   0.273
 1986 253    70  13.34  30.29  24.13  3.815  0.003  3.812  3.815  0.003  3.812  0.000  0.000  357.63  256.01    0.03  255.98    0.00    0.00   0.752   0.575   0.462   0.300   0.234   0.192   0.168   0.151   0.136
 1986 260    77  20.99  32.64  24.71  6.101  0.036  6.086  2.003  0.036  1.967  0.000  0.000  400.34  270.03    0.28  269.74    0.00    0.00   0.837   0.166   0.049   0.017   0.008   0.005   0.003   0.002   0.002
 1986 267    84  19.16  31.19  23.39  5.447  0.057  5.416  3.119  0.057  3.062  0.000  0.000  438.47  291.86    0.68  291.18    0.00    0.00   1.360   1.045   0.831   0.543   0.408   0.326   0.279   0.250   0.226
 1986 274    91  18.79  31.01  23.76  5.360  0.087  5.289  4.669  0.087  4.581  0.000  0.000  475.99  324.54    1.29  323.25    0.00    0.00   1.146   0.878   0.670   0.461   0.367   0.306   0.265   0.225   0.188
 1986 281    98  19.69  31.01  23.54  5.569  0.273  5.393  4.619  0.273  4.345  0.000  0.000  514.97  356.87    3.21  353.67    0.00    0.00   0.958   0.158   0.048   0.016   0.008   0.005   0.003   0.002   0.002
 1986 288   105  16.40  30.66  23.37  4.563  0.525  4.344  1.874  0.525  1.348  0.000  0.000  546.91  369.99    6.88  363.10    0.00    0.00   1.163   0.159   0.046   0.016   0.008   0.005   0.003   0.002   0.002
 1986 295   112  17.94  31.21  24.11  5.090  0.489  4.761  4.035  0.489  3.546  0.000  0.000  582.53  398.24   10.31  387.93    0.00    0.00   0.442   0.390   0.308   0.209   0.165   0.130   0.110   0.098   0.086
 1986 302   119  15.17  30.96  23.97  4.283  0.341  3.940  4.281  0.341  3.940  0.000  0.000  612.51  428.20   12.70  415.51    0.00    0.00   0.656   0.503   0.384   0.266   0.199   0.159   0.136   0.121   0.107
 1986 309   126  20.46  29.89  20.86  5.497  0.827  5.031  3.523  0.827  2.696  0.000  0.000  651.00  452.86   18.48  434.38    0.00    0.00   0.726   0.159   0.048   0.017   0.008   0.005   0.003   0.002   0.002
 1986 316   133  16.16  29.51  20.73  4.254  0.816  3.900  1.545  0.815  0.730  0.000  0.000  680.78  463.68   24.19  439.49    0.00    0.00   0.410   0.138   0.046   0.017   0.008   0.005   0.003   0.002   0.002
 1986 323   140  14.69  29.49  21.36  3.872  0.707  3.567  1.524  0.707  0.817  0.000  0.000  707.88  474.35   29.14  445.21    0.00    0.00   0.501   0.122   0.044   0.016   0.008   0.005   0.003   0.002   0.002
 1986 330   147  16.94  28.50  18.39  4.300  0.749  3.978  1.283  0.749  0.534  0.000  0.000  737.99  483.33   34.38  448.94    0.00    0.00   0.248   0.105   0.042   0.016   0.008   0.005   0.003   0.002   0.002
 1986 337   154  15.11  27.59  18.09  3.780  0.616  3.517  1.011  0.616  0.395  0.000  0.000  764.45  490.40   38.69  451.71    0.00    0.00   0.367   0.096   0.041   0.016   0.008   0.005   0.003   0.002   0.002
 1986 339   156  10.25  26.95  17.90  2.557  0.397  2.388  0.943  0.397  0.546  0.000  0.000  769.57  492.29   39.49  452.80    0.00    0.00   0.356   0.095   0.041   0.016   0.007   0.005   0.003   0.002   0.002
 1986 340     1  15.60  30.70  19.50  4.154  0.000  4.154  0.492  0.000  0.492  0.000  0.000    4.15    0.49    0.00    0.49    0.00    0.00   0.322   0.094   0.041   0.015   0.007   0.005   0.003   0.002   0.002
 1986 346     7  15.95  28.48  17.92  4.060  0.000  4.060  0.398  0.000  0.398  0.000  0.000   28.52    2.88    0.00    2.88    0.00    0.00   0.177   0.090   0.040   0.015   0.007   0.005   0.003   0.002   0.002
 1986 353    14  18.70  31.19  16.44  4.855  0.000  4.855  0.284  0.000  0.284  0.000  0.000   62.50    4.86    0.00    4.86    0.00    0.00   0.088   0.086   0.040   0.015   0.007   0.005   0.003   0.002   0.002
 1986 360    21  17.84  29.66  16.86  4.561  0.000  4.561  0.219  0.000  0.219  0.000  0.000   94.43    6.40    0.00    6.40    0.00    0.00   0.043   0.083   0.040   0.015   0.007   0.005   0.003   0.002   0.002
 1987 002    28  17.87  31.30  18.90  4.712  0.000  4.712  0.185  0.000  0.185  0.000  0.000  127.41    7.69    0.00    7.69    0.00    0.00   0.022   0.079   0.039   0.015   0.007   0.005   0.003   0.002   0.002
 1987 009    35  18.69  31.07  18.36  4.891  0.000  4.891  0.166  0.000  0.166  0.000  0.000  161.65    8.85    0.00    8.85    0.00    0.00   0.011   0.076   0.039   0.015   0.007   0.005   0.003   0.002   0.002
 1987 016    42  18.59  29.87  16.07  4.721  0.000  4.721  0.155  0.000  0.155  0.000  0.000  194.69    9.94    0.00    9.94    0.00    0.00   0.005   0.073   0.039   0.015   0.007   0.005   0.003   0.002   0.002
 1987 023    49  19.00  31.90  15.99  4.930  0.000  4.930  0.148  0.000  0.148  0.000  0.000  229.20   10.97    0.00   10.97    0.00    0.00   0.003   0.070   0.038   0.015   0.007   0.005   0.003   0.002   0.002
 1987 030    56  19.41  29.36  16.07  4.903  0.000  4.903  0.142  0.000  0.142  0.000  0.000  263.53   11.97    0.00   11.97    0.00    0.00   0.001   0.067   0.038   0.015   0.007   0.005   0.003   0.002   0.002
 1987 037    63  20.67  30.17  16.11  5.270  0.000  5.270  0.138  0.000  0.138  0.000  0.000  300.42   12.94    0.00   12.94    0.00    0.00   0.001   0.064   0.038   0.015   0.007   0.005   0.003   0.002   0.002
 1987 044    70  20.51  33.33  18.00  5.485  0.000  5.485  0.135  0.000  0.135  0.000  0.000  338.81   13.88    0.00   13.88    0.00    0.00   0.000   0.061   0.037   0.015   0.007   0.005   0.003   0.002   0.002
 1987 051    77  21.21  34.81  21.46  5.932  0.000  5.932  0.131  0.000  0.131  0.000  0.000  380.33   14.80    0.00   14.80    0.00    0.00   0.000   0.058   0.037   0.015   0.007   0.005   0.003   0.002   0.002
 1987 058    84  19.99  34.64  22.11  5.586  0.000  5.586  0.138  0.000  0.138  0.000  0.000  419.44   15.77    0.00   15.77    0.00    0.00   0.045   0.056   0.037   0.015   0.007   0.005   0.003   0.002   0.002
 1987 065    91  18.04  32.53  20.59  4.915  0.000  4.915  0.168  0.000  0.168  0.000  0.000  453.84   16.94    0.00   16.94    0.00    0.00   0.077   0.054   0.036   0.015   0.007   0.005   0.003   0.002   0.002
 1987 072    98  22.46  36.76  23.00  7.004  0.000  7.004  0.336  0.000  0.336  0.000  0.000  502.87   19.30    0.00   19.30    0.00    0.00   0.457   0.051   0.036   0.015   0.007   0.005   0.003   0.002   0.002
 1987 079   105  24.07  37.29  23.67  7.792  0.000  7.792  0.432  0.000  0.432  0.000  0.000  557.41   22.32    0.00   22.32    0.00    0.00   0.227   0.049   0.036   0.015   0.007   0.005   0.003   0.002   0.002
 1987 086   112  22.41  37.01  23.87  7.245  0.000  7.245  0.272  0.000  0.272  0.000  0.000  608.12   24.23    0.00   24.23    0.00    0.00   0.112   0.047   0.035   0.015   0.007   0.005   0.003   0.002   0.002
 1987 093   119  22.81  36.41  23.99  7.359  0.000  7.359  1.183  0.000  1.183  0.000  0.000  659.64   32.51    0.00   32.51    0.00    0.00   1.304   0.099   0.035   0.015   0.007   0.005   0.003   0.002   0.002
 1987 100   126  23.94  35.96  24.71  7.590  0.000  7.590  3.808  0.000  3.808  0.000  0.000  712.77   59.16    0.00   59.16    0.00    0.00   1.759   1.512   0.954   0.646   0.501   0.446   0.402   0.374   0.339
 1987 107   133  20.76  36.40  24.90  6.744  0.000  6.744  1.065  0.000  1.065  0.000  0.000  759.98   66.62    0.00   66.62    0.00    0.00   0.723   0.165   0.039   0.014   0.007   0.004   0.003   0.002   0.002
 1987 114   140  23.90  37.54  25.67  8.032  0.000  8.032  0.773  0.000  0.773  0.000  0.000  816.21   72.03    0.00   72.03    0.00    0.00   0.393   0.158   0.039   0.014   0.007   0.004   0.003   0.002   0.002
 1987 121   147  22.10  36.91  25.04  7.233  0.000  7.233  1.065  0.000  1.065  0.000  0.000  866.84   79.48    0.00   79.48    0.00    0.00   0.679   0.151   0.038   0.014   0.007   0.004   0.003   0.002   0.002
 1987 128   154  21.46  36.93  25.60  7.156  0.000  7.156  1.122  0.000  1.122  0.000  0.000  916.92   87.34    0.00   87.34    0.00    0.00   1.061   0.145   0.038   0.014   0.007   0.004   0.003   0.002   0.002
 1987 135   161  20.96  35.96  24.97  6.624  0.000  6.624  2.955  0.000  2.955  0.000  0.000  963.29  108.02    0.00  108.02    0.00    0.00   0.899   0.169   0.050   0.017   0.007   0.004   0.003   0.002   0.002
 1987 142   168  23.51  37.23  26.47  7.843  0.000  7.843  0.927  0.000  0.927  0.000  0.000   1018.    115.      0.    115.      0.      0.   0.546   0.161   0.050   0.016   0.007   0.004   0.003   0.002   0.002
 1987 149   175  19.91  36.79  26.59  6.615  0.000  6.615  1.603  0.000  1.603  0.000  0.000   1065.    126.      0.    126.      0.      0.   1.192   0.892   0.676   0.472   0.363   0.272   0.218   0.190   0.171
 1987 156   182  19.21  33.56  24.89  5.674  0.000  5.674  4.638  0.000  4.638  0.000  0.000   1104.    158.      0.    158.      0.      0.   1.032   0.151   0.047   0.016   0.008   0.005   0.003   0.002   0.002
 1987 163   189  16.19  33.29  25.47  4.802  0.000  4.802  3.691  0.000  3.691  0.000  0.000   1138.    184.      0.    184.      0.      0.   1.016   0.756   0.584   0.363   0.268   0.223   0.195   0.173   0.157
 1987 170   196  17.39  33.13  25.37  5.153  0.000  5.153  3.330  0.000  3.330  0.000  0.000   1174.    207.      0.    207.      0.      0.   0.729   0.563   0.442   0.295   0.221   0.175   0.150   0.131   0.117
 1987 177   203  22.21  33.84  25.09  6.616  0.000  6.616  4.615  0.000  4.615  0.000  0.000   1220.    240.      0.    240.      0.      0.   0.864   0.161   0.049   0.017   0.008   0.005   0.003   0.002   0.002
 1987 184   210  18.14  32.83  25.67  5.341  0.000  5.341  2.852  0.000  2.852  0.000  0.000   1258.    260.      0.    260.      0.      0.   0.687   0.540   0.420   0.284   0.225   0.175   0.149   0.132   0.117
 1987 191   217  15.01  31.19  24.06  4.347  0.000  4.347  4.347  0.000  4.347  0.000  0.000   1288.    290.      0.    290.      0.      0.   1.156   0.914   0.731   0.476   0.372   0.306   0.268   0.240   0.215
 1987 198   224  19.21  33.33  25.53  5.685  0.000  5.685  3.187  0.000  3.187  0.000  0.000   1328.    312.      0.    312.      0.      0.   1.007   0.167   0.050   0.016   0.008   0.005   0.003   0.002   0.002
 1987 205   231  18.77  32.00  25.17  5.495  0.000  5.495  4.800  0.000  4.800  0.000  0.000   1366.    346.      0.    346.      0.      0.   1.554   1.173   0.939   0.625   0.488   0.393   0.339   0.295   0.263
 1987 209   235  24.70  32.33  25.40  7.174  0.000  7.174  4.205  0.000  4.205  0.000  0.000   1395.    363.      0.    363.      0.      0.   1.075   0.157   0.048   0.017   0.008   0.005   0.003   0.002   0.002
 1987 210     1  15.30  33.20  26.00  4.527  0.000  4.527  4.527  0.000  4.527  0.000  0.000    4.53    4.53    0.00    4.53    0.00    0.00   1.189   0.853   0.683   0.456   0.359   0.293   0.256   0.231   0.208
 1987 216     7  19.27  33.13  23.90  5.662  0.000  5.662  5.566  0.000  5.566  0.000  0.000   38.50   37.92    0.00   37.92    0.00    0.00   1.572   1.383   1.139   0.761   0.582   0.475   0.417   0.375   0.338
 1987 223    14  21.81  31.01  24.91  6.222  0.000  6.222  1.257  0.000  1.257  0.000  0.000   82.05   46.73    0.00   46.73    0.00    0.00   0.808   0.157   0.049   0.017   0.008   0.005   0.003   0.002   0.002
 1987 230    21  16.67  31.94  24.79  4.804  0.000  4.804  2.210  0.000  2.210  0.000  0.000  115.68   62.19    0.00   62.19    0.00    0.00   0.873   0.670   0.537   0.358   0.285   0.240   0.213   0.192   0.173
 1987 237    28  14.64  32.01  24.67  4.278  0.000  4.278  4.249  0.000  4.249  0.000  0.000  145.63   91.93    0.00   91.93    0.00    0.00   0.906   0.691   0.549   0.372   0.303   0.250   0.213   0.185   0.163
 1987 244    35  21.80  31.93  25.34  6.322  0.001  6.321  3.898  0.001  3.897  0.000  0.000  189.88  119.22    0.01  119.21    0.00    0.00   1.218   0.173   0.049   0.017   0.008   0.005   0.003   0.002   0.002
 1987 251    42  16.01  31.06  24.43  4.646  0.003  4.643  4.646  0.003  4.643  0.000  0.000  222.40  151.74    0.03  151.71    0.00    0.00   1.651   1.258   0.964   0.656   0.533   0.452   0.380   0.329   0.286
 1987 258    49  18.61  31.27  24.61  5.387  0.015  5.376  4.845  0.015  4.830  0.000  0.000  260.11  185.65    0.13  185.52    0.00    0.00   1.577   1.273   0.999   0.655   0.511   0.421   0.369   0.332   0.299
 1987 265    56  14.91  31.56  24.34  4.330  0.018  4.312  4.330  0.018  4.312  0.000  0.000  290.42  215.97    0.26  215.70    0.00    0.00   1.117   0.837   0.652   0.442   0.360   0.304   0.255   0.219   0.190
 1987 272    63  17.97  31.46  24.60  5.191  0.065  5.142  4.507  0.065  4.441  0.000  0.000  326.76  247.51    0.72  246.79    0.00    0.00   1.071   0.151   0.047   0.016   0.008   0.005   0.003   0.002   0.002
 1987 279    70  19.60  32.11  24.17  5.632  0.177  5.513  3.836  0.177  3.658  0.000  0.000  366.18  274.36    1.96  272.40    0.00    0.00   1.341   1.049   0.827   0.542   0.409   0.329   0.288   0.260   0.232
 1987 286    77  18.59  32.30  24.64  5.342  0.370  5.119  4.204  0.370  3.834  0.000  0.000  403.57  303.79    4.55  299.24    0.00    0.00   0.912   0.162   0.049   0.017   0.008   0.005   0.003   0.002   0.002
 1987 293    84  20.20  33.09  25.13  5.781  0.799  5.444  1.981  0.799  1.182  0.000  0.000  444.04  317.66   10.15  307.51    0.00    0.00   1.332   0.150   0.047   0.017   0.008   0.005   0.003   0.002   0.002
 1987 300    91  20.84  30.97  22.30  5.696  0.931  5.298  2.017  0.931  1.086  0.000  0.000  483.91  331.78   16.66  315.12    0.00    0.00   0.597   0.134   0.045   0.016   0.008   0.005   0.003   0.002   0.002
 1987 307    98  19.00  32.46  22.63  5.284  0.703  4.895  3.067  0.703  2.364  0.000  0.000  520.90  353.25   21.58  331.67    0.00    0.00   1.154   0.875   0.696   0.463   0.367   0.296   0.254   0.224   0.198
 1987 314   105  16.50  29.96  22.19  4.498  0.634  4.157  3.222  0.634  2.589  0.000  0.000  552.39  375.80   26.02  349.79    0.00    0.00   0.796   0.157   0.048   0.017   0.008   0.005   0.003   0.002   0.002
 1987 321   112  19.50  32.61  23.51  5.495  0.778  5.097  3.082  0.778  2.304  0.000  0.000  590.85  397.38   31.46  365.92    0.00    0.00   1.035   0.171   0.050   0.017   0.008   0.005   0.003   0.002   0.002
 1987 328   119  14.71  30.33  22.27  3.996  0.639  3.724  1.619  0.638  0.981  0.000  0.000  618.83  408.71   35.93  372.78    0.00    0.00   0.528   0.157   0.049   0.017   0.008   0.005   0.003   0.002   0.002
 1987 334   125  16.02  30.25  21.97  4.266  0.637  3.996  1.249  0.637  0.612  0.000  0.000  644.42  416.21   39.75  376.46    0.00    0.00   0.289   0.145   0.047   0.016   0.008   0.005   0.003   0.002   0.002
 1987 335     1  19.40  25.20  15.80  4.707  0.000  4.707  0.488  0.000  0.488  0.000  0.000    4.71    0.49    0.00    0.49    0.00    0.00   0.262   0.143   0.047   0.016   0.008   0.005   0.003   0.002   0.002
 1987 341     7  19.63  26.08  15.22  4.777  0.000  4.777  0.410  0.000  0.410  0.000  0.000   33.37    2.95    0.00    2.95    0.00    0.00   0.143   0.138   0.047   0.016   0.008   0.005   0.003   0.002   0.002
 1987 348    14  18.97  27.94  14.16  4.661  0.000  4.661  0.315  0.000  0.315  0.000  0.000   66.00    5.16    0.00    5.16    0.00    0.00   0.071   0.132   0.046   0.016   0.008   0.005   0.003   0.002   0.002
 1987 355    21  18.80  27.07  14.83  4.589  0.000  4.589  0.260  0.000  0.260  0.000  0.000   98.12    6.98    0.00    6.98    0.00    0.00   0.035   0.126   0.046   0.016   0.008   0.005   0.003   0.002   0.002
 1987 362    28  18.63  29.64  15.64  4.710  0.000  4.710  0.229  0.000  0.229  0.000  0.000  131.09    8.58    0.00    8.58    0.00    0.00   0.017   0.121   0.046   0.016   0.008   0.005   0.003   0.002   0.002
 1988 004    35  18.86  31.59  17.87  4.946  0.000  4.946  0.211  0.000  0.211  0.000  0.000  165.71   10.06    0.00   10.06    0.00    0.00   0.009   0.116   0.045   0.016   0.008   0.005   0.003   0.002   0.002
 1988 011    42  18.20  31.14  18.64  4.775  0.000  4.775  0.200  0.000  0.200  0.000  0.000  199.14   11.46    0.00   11.46    0.00    0.00   0.004   0.111   0.045   0.016   0.008   0.005   0.003   0.002   0.002
 1988 018    49  19.71  31.19  17.47  5.135  0.000  5.135  0.192  0.000  0.192  0.000  0.000  235.08   12.80    0.00   12.80    0.00    0.00   0.002   0.106   0.044   0.016   0.008   0.005   0.003   0.002   0.002
 1988 025    56  20.41  32.99  16.13  5.373  0.000  5.373  0.185  0.000  0.185  0.000  0.000  272.69   14.10    0.00   14.10    0.00    0.00   0.001   0.102   0.044   0.016   0.008   0.005   0.003   0.002   0.002
 1988 032    63  20.49  34.79  21.03  5.789  0.000  5.789  0.180  0.000  0.180  0.000  0.000  313.22   15.36    0.00   15.36    0.00    0.00   0.001   0.097   0.044   0.016   0.008   0.005   0.003   0.002   0.002
 1988 039    70  20.57  30.33  15.77  5.240  0.000  5.240  0.175  0.000  0.175  0.000  0.000  349.90   16.58    0.00   16.58    0.00    0.00   0.000   0.093   0.043   0.016   0.008   0.005   0.003   0.002   0.002
 1988 046    77  20.56  34.33  19.77  5.626  0.000  5.626  0.170  0.000  0.170  0.000  0.000  389.28   17.77    0.00   17.77    0.00    0.00   0.000   0.089   0.043   0.016   0.008   0.005   0.003   0.002   0.002
 1988 053    84  21.37  34.76  21.24  5.963  0.000  5.963  0.165  0.000  0.165  0.000  0.000  431.02   18.92    0.00   18.92    0.00    0.00   0.000   0.085   0.042   0.016   0.008   0.005   0.003   0.002   0.002
 1988 060    91  18.63  33.74  21.80  5.161  0.000  5.161  0.182  0.000  0.182  0.000  0.000  467.15   20.20    0.00   20.20    0.00    0.00   0.037   0.082   0.042   0.016   0.008   0.005   0.003   0.002   0.002
 1988 067    98  17.27  33.27  21.73  4.931  0.000  4.931  0.207  0.000  0.207  0.000  0.000  501.66   21.65    0.00   21.65    0.00    0.00   0.043   0.078   0.042   0.016   0.008   0.005   0.003   0.002   0.002
 1988 074   105  23.20  35.74  20.61  7.101  0.000  7.101  0.183  0.000  0.183  0.000  0.000  551.37   22.93    0.00   22.93    0.00    0.00   0.021   0.075   0.041   0.016   0.008   0.005   0.003   0.002   0.002
 1988 081   112  23.21  38.89  26.27  8.184  0.000  8.184  0.164  0.000  0.164  0.000  0.000  608.66   24.08    0.00   24.08    0.00    0.00   0.011   0.072   0.041   0.015   0.008   0.005   0.003   0.002   0.002
 1988 088   119  22.41  37.69  25.17  7.392  0.000  7.392  0.153  0.000  0.153  0.000  0.000  660.40   25.15    0.00   25.15    0.00    0.00   0.005   0.069   0.041   0.015   0.008   0.005   0.003   0.002   0.002
 1988 095   126  19.61  37.94  25.63  6.752  0.000  6.752  0.150  0.000  0.150  0.000  0.000  707.67   26.20    0.00   26.20    0.00    0.00   0.011   0.066   0.040   0.015   0.008   0.005   0.003   0.002   0.002
 1988 102   133  22.57  36.44  24.13  7.352  0.000  7.352  1.505  0.000  1.505  0.000  0.000  759.13   36.73    0.00   36.73    0.00    0.00   1.069   0.163   0.039   0.015   0.008   0.005   0.003   0.002   0.002
 1988 109   140  17.84  34.47  24.56  5.361  0.000  5.361  0.988  0.000  0.988  0.000  0.000  796.66   43.65    0.00   43.65    0.00    0.00   0.664   0.156   0.039   0.015   0.008   0.005   0.003   0.002   0.002
 1988 116   147  23.17  36.69  25.57  7.599  0.000  7.599  0.912  0.000  0.912  0.000  0.000  849.85   50.04    0.00   50.04    0.00    0.00   0.753   0.149   0.039   0.015   0.008   0.005   0.003   0.002   0.002
 1988 123   154  18.16  35.20  25.24  5.798  0.000  5.798  2.063  0.000  2.063  0.000  0.000  890.44   64.48    0.00   64.48    0.00    0.00   1.006   0.774   0.592   0.389   0.281   0.215   0.188   0.172   0.153
 1988 130   161  22.40  34.46  25.63  6.729  0.000  6.729  3.552  0.000  3.552  0.000  0.000  937.54   89.34    0.00   89.34    0.00    0.00   1.468   1.307   1.039   0.671   0.513   0.418   0.361   0.307   0.274
 1988 137   168  18.20  33.14  24.67  5.365  0.000  5.365  4.371  0.000  4.371  0.000  0.000  975.10  119.94    0.00  119.94    0.00    0.00   1.500   1.154   0.904   0.584   0.451   0.368   0.316   0.261   0.231
 1988 144   175  23.36  34.71  25.94  7.295  0.000  7.295  1.963  0.000  1.963  0.000  0.000   1026.    134.      0.    134.      0.      0.   0.803   0.169   0.050   0.017   0.008   0.005   0.003   0.002   0.002
 1988 151   182  20.53  35.06  25.46  6.435  0.000  6.435  3.661  0.000  3.661  0.000  0.000   1071.    159.      0.    159.      0.      0.   1.418   1.176   0.941   0.626   0.495   0.401   0.346   0.305   0.275
 1988 158   189  13.44  31.53  24.04  3.902  0.000  3.902  3.902  0.000  3.902  0.000  0.000   1099.    187.      0.    187.      0.      0.   0.723   0.537   0.418   0.283   0.230   0.198   0.177   0.160   0.144
 1988 165   196  19.56  31.21  24.23  5.712  0.000  5.712  5.467  0.000  5.467  0.000  0.000   1139.    225.      0.    225.      0.      0.   0.723   0.523   0.410   0.273   0.219   0.184   0.159   0.139   0.122
 1988 172   203  19.61  32.33  24.69  5.754  0.000  5.754  5.745  0.000  5.745  0.000  0.000   1179.    265.      0.    265.      0.      0.   1.908   1.517   1.213   0.807   0.638   0.512   0.442   0.397   0.356
 1988 179   210  26.83  34.31  25.69  7.990  0.000  7.990  3.157  0.000  3.157  0.000  0.000   1235.    287.      0.    287.      0.      0.   1.220   0.163   0.047   0.016   0.008   0.005   0.003   0.002   0.002
 1988 186   217  20.10  33.33  25.17  5.930  0.000  5.930  4.133  0.000  4.133  0.000  0.000   1276.    316.      0.    316.      0.      0.   0.917   0.164   0.049   0.017   0.008   0.005   0.003   0.002   0.002
 1988 193   224  24.96  34.37  25.00  7.343  0.000  7.343  1.069  0.000  1.069  0.000  0.000   1328.    324.      0.    324.      0.      0.   0.610   0.157   0.049   0.017   0.008   0.005   0.003   0.002   0.002
 1988 200   231  19.64  31.99  24.21  5.634  0.000  5.634  2.855  0.000  2.855  0.000  0.000   1367.    344.      0.    344.      0.      0.   1.388   1.078   0.860   0.584   0.477   0.412   0.351   0.294   0.252
 1988 207   238  23.11  33.19  25.34  6.776  0.000  6.776  4.365  0.000  4.365  0.000  0.000   1415.    374.      0.    374.      0.      0.   0.848   0.148   0.046   0.016   0.008   0.005   0.003   0.002   0.002
 1988 209   240  18.15  33.00  25.40  5.288  0.000  5.288  1.272  0.000  1.272  0.000  0.000   1425.    377.      0.    377.      0.      0.   1.103   0.146   0.046   0.016   0.008   0.005   0.003   0.002   0.002
 1988 210     1  26.10  33.40  25.50  7.656  0.000  7.656  1.226  0.000  1.226  0.000  0.000    7.66    1.23    0.00    1.23    0.00    0.00   0.998   0.145   0.046   0.016   0.008   0.005   0.003   0.002   0.002
 1988 216     7  14.82  31.07  25.03  4.295  0.000  4.295  3.007  0.000  3.007  0.000  0.000   33.43   19.27    0.00   19.27    0.00    0.00   0.945   0.710   0.559   0.341   0.262   0.220   0.193   0.175   0.156
 1988 223    14  18.76  32.59  25.19  5.509  0.000  5.509  3.662  0.000  3.662  0.000  0.000   71.99   44.90    0.00   44.90    0.00    0.00   1.222   0.918   0.726   0.468   0.341   0.266   0.235   0.213   0.191
 1988 230    21  19.26  32.44  24.93  5.630  0.000  5.630  4.192  0.000  4.192  0.000  0.000  111.40   74.24    0.00   74.24    0.00    0.00   1.010   0.170   0.050   0.017   0.008   0.005   0.003   0.002   0.002
 1988 237    28  21.19  33.46  24.74  6.135  0.000  6.135  1.375  0.000  1.375  0.000  0.000  154.34   83.87    0.00   83.87    0.00    0.00   0.124   0.319   0.447   0.415   0.406   0.396   0.373   0.373   0.372
 1988 244    35  19.77  32.19  24.09  5.711  0.002  5.710  2.647  0.002  2.645  0.000  0.000  194.32  102.40    0.01  102.39    0.00    0.00   0.816   0.169   0.050   0.017   0.008   0.005   0.003   0.002   0.002
 1988 251    42  25.67  34.41  25.00  7.523  0.016  7.517  1.095  0.016  1.079  0.000  0.000  246.97  110.07    0.13  109.94    0.00    0.00   0.621   0.161   0.050   0.017   0.008   0.005   0.003   0.002   0.002
 1988 258    49  19.34  33.66  24.66  5.699  0.027  5.686  2.769  0.027  2.742  0.000  0.000  286.87  129.45    0.31  129.14    0.00    0.00   1.521   1.255   0.989   0.668   0.508   0.393   0.313   0.275   0.249
 1988 265    56  19.44  31.83  24.06  5.635  0.030  5.605  5.635  0.030  5.605  0.000  0.000  326.31  168.89    0.52  168.37    0.00    0.00   1.182   1.043   0.854   0.572   0.447   0.369   0.321   0.284   0.254
 1988 272    63  19.81  32.06  24.03  5.617  0.178  5.546  1.594  0.178  1.416  0.000  0.000  365.63  180.05    1.77  178.29    0.00    0.00   1.028   0.159   0.048   0.017   0.008   0.005   0.003   0.002   0.002
 1988 279    70  14.71  29.77  23.30  4.112  0.197  4.001  2.736  0.197  2.540  0.000  0.000  394.41  199.21    3.14  196.06    0.00    0.00   0.630   0.476   0.363   0.253   0.195   0.151   0.127   0.110   0.098
 1988 286    77  11.20  28.54  23.30  3.113  0.146  2.966  3.111  0.146  2.966  0.000  0.000  416.20  220.99    4.16  216.83    0.00    0.00   0.552   0.405   0.319   0.216   0.171   0.140   0.121   0.107   0.095
 1988 293    84  15.80  30.53  23.56  4.431  0.343  4.085  4.428  0.343  4.085  0.000  0.000  447.22  251.98    6.56  245.42    0.00    0.00   1.248   1.005   0.811   0.541   0.426   0.349   0.304   0.271   0.242
 1988 300    91  17.21  31.19  23.04  4.754  0.694  4.291  4.066  0.694  3.372  0.000  0.000  480.50  280.45   11.42  269.03    0.00    0.00   1.197   0.926   0.728   0.493   0.382   0.302   0.260   0.232   0.207
 1988 307    98  17.41  28.86  19.94  4.568  0.877  4.085  3.062  0.877  2.184  0.000  0.000  512.47  301.88   17.56  284.32    0.00    0.00   0.657   0.158   0.048   0.017   0.008   0.005   0.003   0.002   0.002
 1988 314   105  16.36  27.84  19.44  4.162  1.040  3.694  1.718  1.040  0.679  0.000  0.000  541.61  313.91   24.84  289.07    0.00    0.00   0.325   0.140   0.046   0.016   0.008   0.005   0.003   0.002   0.002
 1988 321   112  15.79  29.04  18.26  3.996  0.966  3.563  1.421  0.966  0.455  0.000  0.000  569.58  323.85   31.60  292.25    0.00    0.00   0.304   0.125   0.044   0.016   0.008   0.005   0.003   0.002   0.002
 1988 328   119  18.09  29.71  19.31  4.662  1.082  4.180  1.591  1.082  0.509  0.000  0.000  602.22  334.99   39.18  295.81    0.00    0.00   0.229   0.108   0.043   0.015   0.007   0.005   0.003   0.002   0.002
 1988 335   126  16.64  29.29  18.74  4.222  0.927  3.812  1.261  0.927  0.334  0.000  0.000  631.77  343.82   45.66  298.16    0.00    0.00   0.114   0.098   0.041   0.015   0.007   0.004   0.003   0.002   0.002
 1988 341   132  16.48  28.45  16.55  4.078  0.838  3.711  1.087  0.838  0.250  0.000  0.000  656.24  350.35   50.69  299.66    0.00    0.00   0.062   0.093   0.040   0.015   0.007   0.004   0.003   0.002   0.002