*SOIL WATER DAILY OUTPUT FILE

*DSSAT Cropping System Model Ver. 4.6.1.000 -release      DEC 06, 2018; 16:51:38
                                                                                
*RUN   1        : Rice component            RICER046 SSKT8601    1              
 MODEL          : RICER046 - Rice                                               
 EXPERIMENT     : SSKT8601 SQ CE-FALLOW, 30 YEARS, 15 REPS, NO N                
 DATA PATH      : C:\DSSAT46\Sequence\                                          
 TREATMENT  1   : Rice component            RICER046                            
  
!                                                                      Soil water content (mm3/mm3) by soil depth (cm):
!                                                                      0-5    5-15   15-30   30-45   45-60   60-75   75-90  90-105 105-120
@YEAR DOY   DAS  SWTD  SWXD   ROFC   DRNC   PREC  IR#C  IRRC  DTWT    SW1D    SW2D    SW3D    SW4D    SW5D    SW6D    SW7D    SW8D    SW9D
 1986 183     0   380   140      0      0      0     0     0     0   0.338   0.338   0.339   0.320   0.310   0.303   0.305   0.309   0.309
 1986 190     7   368   128      0      0      9     0     0   128   0.289   0.315   0.326   0.312   0.303   0.297   0.300   0.305   0.305
 1986 197    14   362   122      0      0     11     0     0   120   0.193   0.304   0.324   0.311   0.303   0.297   0.300   0.304   0.305
 1986 204    21   415   176     10      8    107     0     0   119   0.368   0.365   0.356   0.343   0.341   0.342   0.345   0.343   0.334
 1986 211    28   367   128     11     44    134     0     0   118   0.228   0.309   0.323   0.315   0.307   0.302   0.304   0.308   0.309
 1986 218    35   366   127     11     44    140     0     0   120   0.242   0.298   0.321   0.314   0.307   0.301   0.303   0.308   0.308
 1986 225    42   378   138     21     67    214     0     0   119   0.286   0.321   0.332   0.320   0.313   0.308   0.310   0.313   0.312
 1986 232    49   376   136     34     82    278     0     0   120   0.358   0.350   0.329   0.308   0.303   0.299   0.302   0.305   0.305
 1986 239    56   414   175     56     83    362     0     0   120   0.355   0.367   0.353   0.354   0.361   0.367   0.335   0.319   0.310
 1986 246    63   396   157     67    132    444     0     0   118   0.350   0.365   0.352   0.348   0.327   0.313   0.312   0.315   0.314
 1986 253    70   378   139     67    150    472     0     0   120   0.346   0.336   0.337   0.318   0.308   0.302   0.304   0.307   0.308
 1986 260    77   366   126     67    150    473     0     0   120   0.208   0.316   0.328   0.313   0.305   0.299   0.301   0.305   0.306
 1986 267    84   380   140     71    150    513     0     0   120   0.325   0.346   0.347   0.331   0.315   0.303   0.298   0.300   0.302
 1986 274    91   426   187    100    152    623     0     0   120   0.358   0.369   0.354   0.355   0.361   0.367   0.369   0.347   0.324
 1986 281    98   364   125    100    188    629     0     0   118   0.225   0.301   0.319   0.310   0.305   0.300   0.304   0.308   0.308
 1986 288   105   370   131    100    188    649     0     0   120   0.357   0.314   0.312   0.309   0.303   0.299   0.303   0.308   0.307
 1986 295   112   405   165    130    188    741     0     0   120   0.372   0.373   0.356   0.357   0.362   0.330   0.313   0.309   0.301
 1986 302   119   402   162    132    209    791     0     0   120   0.367   0.372   0.356   0.352   0.335   0.320   0.317   0.316   0.313
 1986 309   126   363   123    132    223    791     0     0   120   0.186   0.300   0.321   0.316   0.305   0.300   0.302   0.307   0.306
 1986 316   133   353   114    132    223    792     0     0   120   0.138   0.269   0.310   0.312   0.299   0.297   0.300   0.306   0.306
 1986 323   140   347   108    132    223    796     0     0   120   0.144   0.242   0.300   0.307   0.294   0.295   0.298   0.306   0.306
 1986 330   147   338    99    132    223    796     0     0   120   0.097   0.217   0.291   0.303   0.287   0.291   0.296   0.305   0.305
 1986 337   154   335    95    132    223    800     0     0   120   0.132   0.203   0.284   0.297   0.280   0.287   0.293   0.304   0.305
 1986 339   156   333    93    132    223    800     0     0   120   0.117   0.201   0.282   0.296   0.278   0.286   0.293   0.304   0.305
 1986 346     7   330    90      0      0      0     0     0   120   0.083   0.194   0.280   0.296   0.278   0.286   0.292   0.303   0.305
 1986 353    14   328    88      0      0      0     0     0   120   0.066   0.188   0.279   0.295   0.278   0.286   0.292   0.303   0.305
 1986 360    21   326    87      0      0      0     0     0   120   0.058   0.182   0.277   0.294   0.277   0.286   0.292   0.303   0.305
 1987 002    28   325    85      0      0      0     0     0   120   0.054   0.177   0.275   0.294   0.277   0.286   0.292   0.303   0.305
 1987 009    35   324    84      0      0      0     0     0   120   0.052   0.171   0.273   0.293   0.277   0.285   0.292   0.303   0.304
 1987 016    42   323    83      0      0      0     0     0   120   0.051   0.166   0.271   0.292   0.276   0.285   0.292   0.303   0.304
 1987 023    49   322    82      0      0      0     0     0   120   0.050   0.161   0.269   0.291   0.276   0.285   0.292   0.303   0.304
 1987 030    56   321    81      0      0      0     0     0   120   0.050   0.156   0.268   0.291   0.276   0.285   0.291   0.303   0.304
 1987 037    63   320    80      0      0      0     0     0   120   0.050   0.152   0.266   0.290   0.275   0.285   0.291   0.303   0.304
 1987 044    70   319    79      0      0      0     0     0   120   0.050   0.148   0.264   0.289   0.275   0.284   0.291   0.302   0.304
 1987 051    77   318    78      0      0      0     0     0   120   0.050   0.143   0.262   0.289   0.275   0.284   0.291   0.302   0.304
 1987 058    84   317    78      0      0      1     0     0   120   0.058   0.139   0.261   0.288   0.274   0.284   0.291   0.302   0.304
 1987 065    91   317    77      0      0      1     0     0   120   0.064   0.136   0.259   0.287   0.274   0.284   0.291   0.302   0.304
 1987 072    98   320    80      0      0      6     0     0   120   0.136   0.132   0.257   0.286   0.274   0.283   0.291   0.302   0.304
 1987 079   105   317    77      0      0      6     0     0   120   0.093   0.128   0.256   0.286   0.273   0.283   0.290   0.302   0.304
 1987 086   112   315    75      0      0      6     0     0   120   0.071   0.125   0.254   0.285   0.273   0.283   0.290   0.302   0.304
 1987 093   119   345   106      1      0     46     0     0   120   0.355   0.296   0.252   0.284   0.273   0.283   0.290   0.302   0.303
 1987 100   126   339   100      2      0     68     0     0   120   0.271   0.326   0.276   0.271   0.262   0.274   0.282   0.294   0.297
 1987 107   133   334    94      2      0     70     0     0   120   0.200   0.314   0.274   0.270   0.262   0.273   0.282   0.294   0.296
 1987 114   140   329    89      2      0     70     0     0   120   0.124   0.303   0.272   0.270   0.262   0.273   0.282   0.294   0.296
 1987 121   147   330    90      2      0     79     0     0   120   0.178   0.292   0.270   0.269   0.261   0.273   0.281   0.294   0.296
 1987 128   154   333    94      2      0     90     0     0   120   0.280   0.282   0.268   0.268   0.261   0.273   0.281   0.294   0.296
 1987 135   161   348   108     12      0    135     0     0   120   0.224   0.320   0.332   0.312   0.261   0.267   0.276   0.289   0.292
 1987 142   168   342   103     12      0    136     0     0   120   0.155   0.309   0.330   0.311   0.261   0.267   0.276   0.289   0.292
 1987 149   175   400   160     36      0    229     0     0   120   0.358   0.369   0.354   0.355   0.361   0.342   0.308   0.290   0.288
 1987 156   182   362   123     36     10    234     0     0   120   0.273   0.292   0.314   0.310   0.304   0.300   0.300   0.301   0.302
 1987 163   189   373   133     36     10    271     0     0   120   0.357   0.354   0.347   0.320   0.295   0.290   0.292   0.293   0.295
 1987 170   196   378   139     39     10    302     0     0   120   0.333   0.348   0.344   0.331   0.312   0.302   0.304   0.297   0.289
 1987 177   203   366   127     55     32    361     0     0   120   0.213   0.307   0.324   0.315   0.308   0.303   0.304   0.307   0.307
 1987 184   210   403   164     71     32    433     0     0   120   0.368   0.372   0.356   0.356   0.360   0.324   0.312   0.309   0.301
 1987 191   217   376   136     72     58    463     0     0   120   0.304   0.330   0.333   0.317   0.308   0.303   0.305   0.308   0.308
 1987 198   224   365   125     72     58    475     0     0   120   0.242   0.318   0.329   0.310   0.300   0.296   0.299   0.303   0.302
 1987 205   231   380   140     81     60    534     0     0   120   0.315   0.333   0.337   0.326   0.318   0.307   0.305   0.307   0.307
 1987 209   235   367   127     81     61    539     0     0   120   0.298   0.302   0.321   0.313   0.306   0.298   0.300   0.304   0.304
 1987 216     7   367   127      5      2     45     0     0   120   0.256   0.312   0.326   0.317   0.304   0.297   0.299   0.304   0.304
 1987 223    14   362   123      5      2     50     0     0   120   0.203   0.301   0.324   0.316   0.304   0.296   0.299   0.304   0.304
 1987 230    21   400   160    103     51    250     0     0   117   0.325   0.340   0.342   0.330   0.327   0.327   0.332   0.337   0.338
 1987 237    28   409   169    115     72    320     0     0   119   0.338   0.351   0.350   0.343   0.346   0.340   0.337   0.334   0.327
 1987 244    35   379   139    115     91    337     0     0   119   0.357   0.349   0.331   0.313   0.307   0.302   0.304   0.309   0.308
 1987 251    42   422   182    152     98    457     0     0   119   0.348   0.365   0.352   0.354   0.360   0.366   0.350   0.341   0.331
 1987 258    49   378   138    173    176    545     0     0   117   0.350   0.353   0.335   0.314   0.304   0.299   0.302   0.306   0.306
 1987 265    56   411   171    195    180    634     0     0   120   0.359   0.355   0.350   0.342   0.345   0.346   0.341   0.334   0.324
 1987 272    63   363   123    195    201    639     0     0   119   0.251   0.291   0.314   0.308   0.303   0.299   0.303   0.308   0.307
 1987 279    70   378   138    199    201    684     0     0   120   0.314   0.341   0.340   0.325   0.308   0.301   0.303   0.307   0.303
 1987 286    77   365   126    204    209    714     0     0   120   0.217   0.309   0.325   0.315   0.307   0.300   0.302   0.304   0.304
 1987 293    84   364   124    204    209    727     0     0   120   0.295   0.288   0.314   0.312   0.302   0.297   0.300   0.303   0.304
 1987 300    91   350   110    204    209    727     0     0   120   0.163   0.263   0.304   0.309   0.296   0.294   0.297   0.302   0.303
 1987 307    98   385   145    218    218    807     0     0   120   0.323   0.339   0.340   0.328   0.324   0.313   0.310   0.309   0.308
 1987 314   105   361   121    218    220    808     0     0   120   0.200   0.300   0.321   0.312   0.303   0.298   0.299   0.304   0.303
 1987 321   112   367   127    221    220    839     0     0   120   0.242   0.322   0.332   0.315   0.305   0.298   0.300   0.304   0.299
 1987 328   119   357   117    221    220    840     0     0   120   0.150   0.300   0.324   0.311   0.300   0.295   0.297   0.302   0.299
 1987 334   125   349   109    221    220    840     0     0   120   0.104   0.280   0.317   0.308   0.295   0.292   0.295   0.301   0.298
 1987 341     7   346   106      0      0      0     0     0   120   0.077   0.270   0.315   0.307   0.295   0.292   0.295   0.301   0.298
 1987 348    14   344   104      0      0      0     0     0   120   0.063   0.261   0.312   0.307   0.294   0.291   0.294   0.301   0.298
 1987 355    21   342   102      0      0      0     0     0   120   0.056   0.252   0.310   0.306   0.294   0.291   0.294   0.301   0.298
 1987 362    28   341   101      0      0      0     0     0   120   0.053   0.243   0.308   0.305   0.294   0.291   0.294   0.301   0.298
 1988 004    35   339    99      0      0      0     0     0   120   0.051   0.235   0.306   0.304   0.293   0.291   0.294   0.301   0.298
 1988 011    42   338    98      0      0      0     0     0   120   0.050   0.227   0.304   0.304   0.293   0.291   0.294   0.301   0.298
 1988 018    49   336    97      0      0      0     0     0   120   0.050   0.220   0.302   0.303   0.292   0.290   0.294   0.301   0.297
 1988 025    56   335    95      0      0      0     0     0   120   0.050   0.213   0.300   0.302   0.292   0.290   0.293   0.300   0.297
 1988 032    63   334    94      0      0      0     0     0   120   0.050   0.206   0.298   0.301   0.292   0.290   0.293   0.300   0.297
 1988 039    70   333    93      0      0      0     0     0   120   0.050   0.199   0.296   0.301   0.291   0.290   0.293   0.300   0.297
 1988 046    77   331    92      0      0      0     0     0   120   0.050   0.193   0.294   0.300   0.291   0.289   0.293   0.300   0.297
 1988 053    84   330    90      0      0      0     0     0   120   0.050   0.186   0.292   0.299   0.291   0.289   0.293   0.300   0.297
 1988 060    91   329    90      0      0      1     0     0   120   0.057   0.181   0.290   0.298   0.290   0.289   0.293   0.300   0.297
 1988 067    98   328    89      0      0      1     0     0   120   0.058   0.175   0.288   0.298   0.290   0.289   0.293   0.300   0.297
 1988 074   105   327    87      0      0      1     0     0   120   0.054   0.170   0.286   0.297   0.290   0.289   0.292   0.300   0.297
 1988 081   112   326    86      0      0      1     0     0   120   0.051   0.165   0.284   0.296   0.289   0.288   0.292   0.299   0.297
 1988 088   119   325    85      0      0      1     0     0   120   0.050   0.160   0.282   0.296   0.289   0.288   0.292   0.299   0.297
 1988 095   126   324    84      0      0      1     0     0   120   0.052   0.155   0.280   0.295   0.288   0.288   0.292   0.299   0.297
 1988 102   133   347   107      2      0     36     0     0   120   0.252   0.311   0.274   0.291   0.286   0.286   0.290   0.297   0.295
 1988 109   140   342   103      2      0     39     0     0   120   0.203   0.300   0.272   0.290   0.285   0.285   0.290   0.297   0.295
 1988 116   147   340   101      2      0     43     0     0   120   0.192   0.289   0.271   0.290   0.285   0.285   0.290   0.297   0.295
 1988 123   154   380   140      9      0    105     0     0   120   0.361   0.370   0.355   0.338   0.314   0.288   0.286   0.294   0.292
 1988 130   161   378   138     11      0    129     0     0   120   0.352   0.364   0.352   0.326   0.309   0.300   0.297   0.288   0.287
 1988 137   168   369   129     11      0    151     0     0   120   0.316   0.339   0.337   0.318   0.307   0.301   0.303   0.284   0.279
 1988 144   175   358   118     11      0    154     0     0   120   0.202   0.320   0.332   0.313   0.304   0.298   0.301   0.282   0.277
 1988 151   182   378   138     22     11    221     0     0   120   0.287   0.329   0.334   0.322   0.318   0.308   0.306   0.307   0.307
 1988 158   189   429   189     67     55    389     0     0   116   0.367   0.361   0.354   0.345   0.347   0.354   0.362   0.368   0.369
 1988 165   196   407   167    100    110    492     0     0   118   0.367   0.359   0.350   0.336   0.335   0.334   0.334   0.333   0.327
 1988 172   203   377   137    108    146    547     0     0   120   0.290   0.327   0.333   0.322   0.317   0.305   0.305   0.308   0.308
 1988 179   210   368   128    108    146    561     0     0   120   0.322   0.313   0.316   0.311   0.305   0.298   0.299   0.304   0.304
 1988 186   217   366   126    113    146    592     0     0   120   0.230   0.312   0.328   0.316   0.306   0.300   0.300   0.304   0.302
 1988 193   224   361   121    113    146    595     0     0   120   0.165   0.301   0.326   0.315   0.306   0.299   0.300   0.304   0.302
 1988 200   231   408   169    131    150    684     0     0   120   0.319   0.343   0.345   0.339   0.343   0.351   0.348   0.338   0.324
 1988 207   238   359   119    131    171    686     0     0   120   0.210   0.287   0.312   0.307   0.302   0.299   0.301   0.307   0.305
 1988 209   240   361   121    131    171    690     0     0   120   0.259   0.284   0.312   0.306   0.302   0.299   0.301   0.307   0.305
 1988 216     7   371   132      1      0     30     0     0   120   0.335   0.343   0.341   0.309   0.294   0.293   0.296   0.301   0.301
 1988 223    14   374   134      2      0     60     0     0   120   0.339   0.350   0.349   0.329   0.308   0.284   0.288   0.295   0.294
 1988 230    21   361   121      3      0     77     0     0   120   0.241   0.322   0.332   0.315   0.306   0.299   0.285   0.286   0.287
 1988 237    28   371   132      4      0     98     0     0   120   0.379   0.363   0.341   0.317   0.303   0.296   0.282   0.283   0.284
 1988 244    35   354   114      4      0     99     0     0   120   0.204   0.320   0.332   0.314   0.303   0.291   0.278   0.280   0.281
 1988 251    42   350   111      4      0    103     0     0   120   0.167   0.308   0.330   0.314   0.303   0.291   0.278   0.280   0.281
 1988 258    49   381   142     13      0    162     0     0   120   0.351   0.365   0.352   0.354   0.336   0.307   0.281   0.276   0.277
 1988 265    56   373   133     22     24    227     0     0   120   0.265   0.318   0.328   0.319   0.311   0.307   0.307   0.308   0.307
 1988 272    63   372   132     22     24    237     0     0   120   0.337   0.307   0.323   0.315   0.307   0.302   0.304   0.306   0.305
 1988 279    70   407   167     31     24    300     0     0   120   0.368   0.373   0.356   0.356   0.362   0.331   0.318   0.312   0.305
 1988 286    77   410   170     40     48    358     0     0   119   0.365   0.359   0.354   0.345   0.341   0.334   0.333   0.334   0.331
 1988 293    84   384   144     42     83    400     0     0   119   0.296   0.330   0.337   0.326   0.320   0.313   0.314   0.316   0.315
 1988 300    91   384   145     48     96    447     0     0   120   0.320   0.343   0.341   0.334   0.323   0.308   0.305   0.308   0.308
 1988 307    98   361   121     48     98    447     0     0   120   0.174   0.299   0.322   0.314   0.302   0.297   0.300   0.306   0.305
 1988 314   105   349   109     48     98    447     0     0   120   0.111   0.272   0.311   0.307   0.292   0.292   0.296   0.304   0.304
 1988 321   112   342   102     48     98    450     0     0   120   0.137   0.247   0.300   0.302   0.283   0.286   0.291   0.302   0.303
 1988 328   119   330    91     48     98    450     0     0   120   0.093   0.221   0.291   0.295   0.273   0.279   0.286   0.299   0.302
 1988 335   126   322    82     48     98    450     0     0   120   0.071   0.207   0.283   0.290   0.264   0.271   0.278   0.296   0.300
 1988 341   132   315    75     48     98    450     0     0   120   0.061   0.198   0.278   0.286   0.259   0.264   0.271   0.293   0.298
 1988 348     7   314    74      0      0      0     0     0   120   0.055   0.192   0.276   0.285   0.259   0.263   0.271   0.293   0.298
 1988 355    14   312    73      0      0      0     0     0   120   0.052   0.186   0.274   0.284   0.259   0.263   0.271   0.293   0.298
 1988 362    21   311    72      0      0      0     0     0   120   0.051   0.180   0.272   0.283   0.258   0.263   0.271   0.293   0.298
 1989 003    28   310    70      0      0      0     0     0   120   0.050   0.174   0.271   0.283   0.258   0.263   0.270   0.292   0.298
 1989 010    35   309    69      0      0      0     0     0   120   0.050   0.169   0.269   0.282   0.258   0.263   0.270   0.292   0.298
 1989 017    42   308    68      0      0      0     0     0   120   0.050   0.164   0.267   0.281   0.257   0.262   0.270   0.292   0.298
 1989 024    49   307    67      0      0      0     0     0   120   0.050   0.159   0.265   0.281   0.257   0.262   0.270   0.292   0.298
 1989 031    56   306    66      0      0      0     0     0   120   0.050   0.154   0.264   0.280   0.257   0.262   0.270   0.292   0.298
 1989 038    63   305    66      0      0      0     0     0   120   0.050   0.150   0.262   0.279   0.256   0.262   0.270   0.292   0.298
 1989 045    70   304    65      0      0      0     0     0   120   0.050   0.146   0.260   0.279   0.256   0.262   0.270   0.292   0.298
 1989 052    77   303    64      0      0      0     0     0   120   0.050   0.141   0.258   0.278   0.256   0.261   0.269   0.292   0.298
 1989 059    84   303    63      0      0      0     0     0   120   0.050   0.138   0.257   0.277   0.255   0.261   0.269   0.292   0.297
 1989 066    91   302    62      0      0      0     0     0   120   0.050   0.134   0.255   0.277   0.255   0.261   0.269   0.291   0.297
 1989 073    98   301    61      0      0      0     0     0   120   0.050   0.130   0.253   0.276   0.255   0.261   0.269   0.291   0.297
 1989 080   105   329    90      2      0     37     0     0   120   0.320   0.308   0.248   0.272   0.252   0.259   0.267   0.289   0.295
 1989 087   112   321    81      2      0     37     0     0   120   0.184   0.297   0.246   0.272   0.252   0.258   0.267   0.289   0.295
 1989 094   119   316    76      2      0     37     0     0   120   0.116   0.287   0.245   0.271   0.252   0.258   0.267   0.289   0.295
 1989 101   126   313    73      2      0     38     0     0   120   0.088   0.277   0.243   0.270   0.251   0.258   0.267   0.289   0.295
 1989 108   133   326    87      2      0     63     0     0   120   0.316   0.322   0.243   0.266   0.248   0.255   0.264   0.287   0.293
 1989 115   140   321    81      2      0     66     0     0   120   0.234   0.310   0.241   0.265   0.248   0.255   0.264   0.287   0.293
 1989 122   147   326    87      3      0     96     0     0   120   0.341   0.362   0.257   0.253   0.239   0.247   0.257   0.280   0.287
 1989 129   154   312    72      3      0    102     0     0   120   0.221   0.319   0.264   0.245   0.233   0.242   0.252   0.275   0.282
 1989 136   161   309    69      3      0    106     0     0   120   0.188   0.308   0.262   0.245   0.233   0.242   0.252   0.275   0.282
 1989 143   168   309    69      3      0    129     0     0   120   0.219   0.320   0.285   0.235   0.225   0.236   0.246   0.269   0.277
 1989 150   175   352   112     16      0    218     0     0   120   0.274   0.322   0.328   0.318   0.309   0.297   0.263   0.258   0.267
 1989 157   182   353   113     20      0    249     0     0   120   0.224   0.313   0.327   0.317   0.305   0.298   0.300   0.259   0.261
 1989 164   189   369   129     22      0    279     0     0   120   0.332   0.347   0.343   0.323   0.310   0.301   0.304   0.277   0.259
 1989 171   196   353   114     22      0    284     0     0   120   0.221   0.317   0.327   0.314   0.302   0.296   0.299   0.275   0.255
 1989 178   203   378   138     25      0    321     0     0   120   0.366   0.372   0.356   0.346   0.320   0.304   0.299   0.274   0.254
 1989 185   210   393   153     44      0    400     0     0   120   0.350   0.366   0.352   0.330   0.323   0.320   0.321   0.322   0.288
 1989 192   217   420   180     70     19    507     0     0   119   0.360   0.369   0.354   0.346   0.348   0.353   0.353   0.346   0.333
 1989 199   224   367   128     71     51    528     0     0   118   0.266   0.307   0.321   0.310   0.305   0.300   0.304   0.308   0.308
 1989 206   231   388   148     79     65    592     0     0   120   0.341   0.340   0.341   0.328   0.325   0.315   0.313   0.313   0.310
 1989 209   234   378   139     79     72    608     0     0   120   0.310   0.334   0.337   0.320   0.311   0.305   0.306   0.310   0.309
 1989 216     7   373   134      0      0      8     0     0   120   0.296   0.323   0.330   0.316   0.308   0.302   0.304   0.308   0.307
 1989 223    14   408   168     18      0    102     0     0   120   0.359   0.369   0.354   0.355   0.361   0.351   0.322   0.310   0.298
 1989 230    21   367   128     18     19    117     0     0   119   0.236   0.311   0.325   0.313   0.305   0.301   0.305   0.309   0.308
 1989 237    28   379   139     29     33    182     0     0   120   0.303   0.328   0.334   0.319   0.312   0.308   0.310   0.313   0.311
 1989 244    35   392   152     35     34    221     0     0   120   0.355   0.366   0.352   0.347   0.321   0.307   0.306   0.310   0.307
 1989 251    42   381   142     36     40    252     0     0   120   0.360   0.357   0.352   0.329   0.313   0.298   0.295   0.298   0.299
 1989 258    49   388   148     41     61    317     0     0   120   0.327   0.345   0.342   0.335   0.325   0.313   0.311   0.311   0.310
 1989 265    56   390   150     46     65    363     0     0   120   0.355   0.367   0.353   0.354   0.323   0.305   0.300   0.300   0.301
 1989 272    63   368   128     46     67    365     0     0   120   0.214   0.311   0.328   0.318   0.309   0.302   0.303   0.307   0.307
 1989 279    70   375   136     47     67    392     0     0   120   0.316   0.335   0.336   0.319   0.309   0.301   0.303   0.303   0.303
 1989 286    77   374   135     47     67    403     0     0   120   0.351   0.328   0.329   0.317   0.306   0.300   0.302   0.302   0.303
 1989 293    84   365   126     47     67    416     0     0   120   0.291   0.329   0.320   0.309   0.298   0.294   0.298   0.299   0.300
 1989 300    91   348   108     47     67    416     0     0   120   0.153   0.292   0.302   0.302   0.288   0.289   0.294   0.298   0.299
 1989 307    98   334    94     47     67    416     0     0   120   0.101   0.254   0.288   0.295   0.276   0.283   0.288   0.296   0.298
 1989 314   105   322    82     47     67    417     0     0   120   0.089   0.216   0.278   0.288   0.263   0.273   0.281   0.292   0.297
 1989 321   112   310    70     47     67    417     0     0   120   0.069   0.199   0.269   0.280   0.253   0.259   0.267   0.287   0.294
 1989 328   119   299    59     47     67    417     0     0   120   0.059   0.187   0.261   0.272   0.245   0.249   0.254   0.277   0.289
 1989 335   126   290    51     47     67    417     0     0   120   0.054   0.178   0.255   0.266   0.238   0.242   0.246   0.268   0.283
 1989 336   127   289    49     47     67    417     0     0   120   0.054   0.177   0.254   0.265   0.238   0.241   0.245   0.267   0.282
 1989 343     7   288    48      0      0      0     0     0   120   0.052   0.172   0.252   0.264   0.237   0.241   0.245   0.267   0.282
 1989 350    14   287    47      0      0      0     0     0   120   0.051   0.166   0.251   0.264   0.237   0.241   0.245   0.267   0.282
 1989 357    21   286    46      0      0      0     0     0   120   0.050   0.162   0.249   0.263   0.237   0.241   0.245   0.266   0.282
 1989 364    28   285    45      0      0      0     0     0   120   0.050   0.157   0.247   0.263   0.236   0.240   0.245   0.266   0.281
 1990 006    35   284    44      0      0      0     0     0   120   0.050   0.152   0.246   0.262   0.236   0.240   0.245   0.266   0.281
 1990 013    42   283    44      0      0      0     0     0   120   0.050   0.148   0.244   0.261   0.236   0.240   0.245   0.266   0.281
 1990 020    49   292    52      0      0     12     0     0   120   0.235   0.144   0.243   0.261   0.236   0.240   0.245   0.266   0.281
 1990 027    56   286    46      0      0     12     0     0   120   0.141   0.140   0.241   0.260   0.235   0.240   0.244   0.266   0.281
 1990 034    63   283    43      0      0     12     0     0   120   0.095   0.136   0.240   0.259   0.235   0.239   0.244   0.266   0.281
 1990 041    70   281    41      0      0     12     0     0   120   0.072   0.132   0.238   0.259   0.235   0.239   0.244   0.266   0.281
 1990 048    77   293    53      0      0     33     0     0   120   0.285   0.178   0.232   0.254   0.232   0.237   0.242   0.264   0.279
 1990 055    84   287    47      0      0     34     0     0   120   0.183   0.173   0.230   0.254   0.231   0.236   0.242   0.263   0.279
 1990 062    91   284    44      0      0     47     0     0   120   0.235   0.177   0.220   0.246   0.226   0.232   0.237   0.259   0.275
 1990 069    98   289    49      0      0     64     0     0   120   0.290   0.228   0.215   0.242   0.223   0.230   0.236   0.257   0.273
 1990 076   105   285    45      0      0     77     0     0   120   0.303   0.234   0.207   0.236   0.219   0.225   0.232   0.254   0.269
 1990 083   112   283    43      0      0     85     0     0   120   0.277   0.233   0.205   0.235   0.218   0.225   0.232   0.254   0.269
 1990 090   119   287    47      0      0    101     0     0   120   0.308   0.286   0.200   0.231   0.215   0.223   0.230   0.251   0.267
 1990 097   126   280    40      0      0    103     0     0   120   0.201   0.276   0.199   0.231   0.215   0.223   0.229   0.251   0.267
 1990 104   133   275    35      0      0    103     0     0   120   0.125   0.266   0.198   0.230   0.215   0.222   0.229   0.251   0.267
 1990 111   140   276    36      0      0    108     0     0   120   0.171   0.257   0.197   0.230   0.215   0.222   0.229   0.251   0.267
 1990 118   147   278    38      0      0    115     0     0   120   0.229   0.248   0.196   0.229   0.215   0.222   0.229   0.251   0.267
 1990 125   154   272    32      0      0    115     0     0   120   0.141   0.240   0.194   0.229   0.214   0.222   0.229   0.251   0.267
 1990 132   161   388   148     53      0    315     0     0   120   0.348   0.365   0.352   0.353   0.360   0.367   0.293   0.243   0.259
 1990 139   168   395   156     62      0    379     0     0   120   0.353   0.366   0.353   0.343   0.338   0.323   0.316   0.312   0.289