*Soil Inorganic Nitrogen daily output file

*DSSAT Cropping System Model Ver. 4.6.1.000 -release      DEC 06, 2018; 16:51:38
                                                                                
*RUN   1        : Rice component            RICER046 SSKT8601    1              
 MODEL          : RICER046 - Rice                                               
 EXPERIMENT     : SSKT8601 SQ CE-FALLOW, 30 YEARS, 15 REPS, NO N                
 DATA PATH      : C:\DSSAT46\Sequence\                                          
 TREATMENT  1   : Rice component            RICER046                            
  
!                                                            NO3 (ppm) by soil depth (cm):                                           NH4 (ppm) by soil depth (cm):
!                                                            0-5    5-15   15-30   30-45   45-60   60-75   75-90  90-105 105-120     0-5    5-15   15-30   30-45   45-60   60-75   75-90  90-105 105-120
@YEAR DOY   DAS  NAPC  NI#M    NLCC   NIAD   NITD   NHTD    NI1D    NI2D    NI3D    NI4D    NI5D    NI6D    NI7D    NI8D    NI9D    NH1D    NH2D    NH3D    NH4D    NH5D    NH6D    NH7D    NH8D    NH9D    NMNC    NITC    NDNC    NIMC    AMLC   NNMNC    NUCM
 1986 183     0     0     0     0.0    0.2    0.1    0.1    0.01    0.01    0.01    0.01    0.01    0.01    0.01    0.01    0.01    0.01    0.01    0.01    0.01    0.01    0.01    0.01    0.01    0.01    0.00    0.00    0.00    0.00    0.00    0.00    0.00
 1986 190     7     0     0     0.0    2.2    1.3    0.9    0.62    0.50    0.07    0.05    0.04    0.04    0.04    0.04    0.04    0.38    0.40    0.05    0.04    0.02    0.03    0.03    0.03    0.03    4.10    1.15    0.00    2.16    0.00    1.93    0.00
 1986 197    14     0     0     0.0    3.8    2.8    1.0    1.38    1.20    0.15    0.11    0.07    0.09    0.09    0.09    0.07    0.33    0.46    0.05    0.04    0.02    0.03    0.03    0.04    0.03    7.35    2.72    0.00    3.78    0.00    3.57    0.00
 1986 204    21     0     0     0.0    5.4    3.7    1.7    0.56    0.75    0.64    0.43    0.25    0.18    0.15    0.16    0.13    0.77    0.86    0.10    0.06    0.03    0.04    0.04    0.04    0.03   10.14    3.64    0.02    4.88    0.00    5.25    0.00
 1986 211    28     0     0     0.2    6.9    5.2    1.7    2.13    1.15    0.63    0.47    0.31    0.23    0.19    0.19    0.16    0.69    0.86    0.10    0.07    0.04    0.04    0.04    0.05    0.03   12.59    5.33    0.07    5.65    0.00    6.93    0.00
 1986 218    35     0     0     0.2    8.6    7.5    1.1    3.17    2.28    0.75    0.56    0.36    0.29    0.24    0.25    0.21    0.37    0.55    0.06    0.05    0.03    0.04    0.04    0.04    0.03   14.87    7.65    0.07    6.22    0.00    8.65    0.00
 1986 225    42     0     0     0.3   10.3    8.6    1.6    2.26    1.63    1.32    0.95    0.62    0.43    0.34    0.32    0.27    0.68    0.82    0.09    0.07    0.04    0.04    0.04    0.05    0.03   17.17    8.93    0.08    6.71    0.00   10.46    0.00
 1986 232    49     0     0     0.5   12.0   10.6    1.4    2.95    2.31    1.43    1.06    0.76    0.55    0.42    0.39    0.32    0.57    0.66    0.07    0.06    0.03    0.04    0.04    0.05    0.03   19.41   11.03    0.10    7.10    0.00   12.30    0.00
 1986 239    56     0     0     0.5   13.8   12.3    1.5    1.23    1.82    1.93    1.62    1.23    0.92    0.61    0.49    0.38    0.65    0.74    0.07    0.05    0.03    0.03    0.03    0.04    0.03   21.56   12.78    0.10    7.44    0.00   14.12    0.00
 1986 246    63     0     0     1.1   14.9   13.0    1.8    1.43    1.57    1.69    1.69    1.39    1.03    0.78    0.69    0.54    0.75    0.94    0.11    0.07    0.03    0.04    0.04    0.05    0.03   23.64   14.21    0.14    7.71    0.00   15.92    0.02
 1986 253    70     0     0     1.4   16.2   14.3    1.9    2.66    2.00    1.64    1.57    1.37    1.10    0.88    0.79    0.63    0.76    0.97    0.12    0.07    0.03    0.04    0.04    0.04    0.03   25.69   15.95    0.23    7.97    0.00   17.72    0.09
 1986 260    77     0     0     1.4   17.6   16.5    1.2    4.34    2.91    1.71    1.61    1.39    1.14    0.92    0.84    0.67    0.46    0.58    0.06    0.04    0.03    0.03    0.03    0.04    0.03   27.54   18.29    0.23    8.18    0.00   19.36    0.27
 1986 267    84     0     0     1.4   19.1   17.9    1.2    2.64    3.45    2.37    1.89    1.52    1.22    0.96    0.89    0.70    0.50    0.57    0.06    0.04    0.02    0.03    0.03    0.03    0.03   29.44   19.98    0.23    8.41    0.00   21.03    0.51
 1986 274    91     0     0     1.5   19.5   18.1    1.4    1.00    1.58    2.15    2.24    2.04    1.73    1.42    1.20    0.85    0.64    0.68    0.08    0.06    0.03    0.03    0.03    0.04    0.02   31.21   21.29    0.23    8.62    0.00   22.59    1.59
 1986 281    98     0     0     2.4   18.5   17.3    1.3    2.76    1.77    1.73    1.91    1.70    1.46    1.26    1.21    0.98    0.54    0.58    0.07    0.05    0.03    0.04    0.04    0.04    0.03   32.87   22.92    0.31    8.80    0.00   24.07    3.03
 1986 288   105     0     0     2.4   18.3   17.4    0.9    1.95    2.35    1.58    1.91    1.65    1.49    1.30    1.26    1.02    0.37    0.43    0.05    0.04    0.02    0.03    0.03    0.04    0.03   34.42   24.63    0.31    8.97    0.00   25.45    4.61
 1986 295   112     0     0     2.4   17.6   16.6    1.0    0.59    1.29    1.55    1.92    1.94    1.71    1.40    1.32    1.04    0.42    0.49    0.05    0.04    0.02    0.03    0.03    0.03    0.02   36.13   26.08    0.31    9.15    0.00   26.98    6.88
 1986 302   119     0     0     3.1   16.5   15.0    1.5    0.72    0.95    1.12    1.54    1.59    1.57    1.45    1.46    1.22    0.69    0.72    0.09    0.06    0.03    0.04    0.04    0.04    0.03   37.82   27.09    0.33    9.33    0.00   28.49    8.74
 1986 309   126     0     0     3.6   15.7   14.5    1.1    1.85    1.24    1.02    1.26    1.23    1.38    1.37    1.47    1.28    0.46    0.54    0.07    0.05    0.03    0.03    0.03    0.04    0.03   39.37   28.85    0.37    9.48    0.00   29.88   10.40
 1986 316   133     0     0     3.6   15.2   14.4    0.8    2.44    1.36    1.00    1.15    1.02    1.29    1.33    1.48    1.30    0.18    0.36    0.05    0.04    0.02    0.03    0.03    0.03    0.03   40.52   30.27    0.37    9.59    0.00   30.93   11.99
 1986 323   140     0     0     3.6   15.9   15.3    0.7    2.85    1.69    1.05    1.19    1.04    1.33    1.36    1.53    1.34    0.18    0.28    0.04    0.04    0.02    0.03    0.03    0.03    0.02   41.54   31.25    0.37    9.73    0.00   31.81   12.09
 1986 330   147     0     0     3.6   16.5   16.0    0.5    3.21    1.90    1.08    1.23    1.05    1.36    1.40    1.57    1.37    0.10    0.20    0.04    0.04    0.02    0.03    0.03    0.03    0.02   42.34   32.05    0.37    9.88    0.00   32.47   12.17
 1986 337   154     0     0     3.6   16.0   15.6    0.4    3.49    1.90    1.00    1.13    0.99    1.25    1.33    1.57    1.39    0.07    0.14    0.03    0.03    0.02    0.03    0.03    0.03    0.02   43.02   32.67    0.37   10.01    0.00   33.01   13.21
 1986 346     7     0     0     0.0   16.5   16.1    0.4    3.82    1.96    1.05    1.15    1.02    1.28    1.36    1.61    1.43    0.05    0.10    0.03    0.03    0.02    0.03    0.03    0.03    0.02    0.70    0.51    0.00    0.23    0.00    0.46    0.00
 1986 353    14     0     0     0.0   17.0   16.6    0.4    4.08    1.98    1.08    1.19    1.05    1.31    1.40    1.66    1.47    0.05    0.08    0.03    0.03    0.02    0.03    0.03    0.03    0.02    1.36    1.01    0.00    0.42    0.00    0.94    0.00
 1986 360    21     0     0     0.0   17.4   17.1    0.4    4.35    1.97    1.11    1.23    1.07    1.35    1.44    1.71    1.50    0.06    0.06    0.03    0.03    0.02    0.03    0.03    0.03    0.02    1.98    1.49    0.00    0.58    0.00    1.41    0.00
 1987 002    28     0     0     0.0   17.9   17.6    0.3    4.61    1.94    1.14    1.28    1.10    1.39    1.48    1.75    1.54    0.07    0.04    0.03    0.03    0.02    0.03    0.03    0.03    0.02    2.55    1.96    0.00    0.69    0.00    1.86    0.00
 1987 009    35     0     0     0.0   18.3   18.0    0.3    4.87    1.90    1.18    1.32    1.12    1.43    1.52    1.80    1.57    0.07    0.03    0.03    0.03    0.02    0.03    0.03    0.03    0.02    3.10    2.42    0.00    0.79    0.00    2.31    0.00
 1987 016    42     0     0     0.0   18.7   18.4    0.3    5.13    1.84    1.21    1.36    1.15    1.47    1.56    1.85    1.61    0.08    0.02    0.03    0.03    0.02    0.03    0.03    0.03    0.02    3.57    2.83    0.00    0.86    0.00    2.71    0.00
 1987 023    49     0     0     0.0   19.1   18.8    0.3    5.38    1.77    1.24    1.40    1.18    1.50    1.60    1.89    1.64    0.08    0.02    0.03    0.03    0.02    0.03    0.03    0.03    0.02    4.03    3.23    0.00    0.93    0.00    3.11    0.00
 1987 030    56     0     0     0.0   19.5   19.2    0.3    5.63    1.71    1.27    1.44    1.20    1.54    1.63    1.94    1.67    0.08    0.02    0.03    0.03    0.02    0.03    0.03    0.03    0.02    4.49    3.62    0.00    0.99    0.00    3.50    0.00
 1987 037    63     0     0     0.0   19.9   19.6    0.3    5.86    1.64    1.29    1.47    1.23    1.58    1.67    1.98    1.71    0.08    0.02    0.03    0.03    0.02    0.03    0.03    0.03    0.02    4.92    4.00    0.00    1.04    0.00    3.88    0.00
 1987 044    70     0     0     0.0   20.3   20.0    0.3    6.10    1.59    1.32    1.51    1.25    1.61    1.71    2.03    1.74    0.08    0.01    0.02    0.03    0.02    0.03    0.03    0.03    0.02    5.36    4.40    0.00    1.09    0.00    4.27    0.00
 1987 051    77     0     0     0.0   20.7   20.4    0.3    6.34    1.54    1.35    1.55    1.28    1.65    1.75    2.07    1.77    0.08    0.01    0.02    0.03    0.02    0.03    0.03    0.03    0.02    5.84    4.84    0.00    1.14    0.00    4.70    0.00
 1987 058    84     0     0     0.0   21.2   20.9    0.3    6.57    1.49    1.38    1.60    1.31    1.69    1.79    2.12    1.81    0.08    0.01    0.02    0.03    0.02    0.03    0.03    0.03    0.02    6.31    5.26    0.00    1.20    0.00    5.12    0.00
 1987 065    91     0     0     0.0   21.5   21.3    0.3    6.80    1.45    1.40    1.63    1.33    1.73    1.83    2.16    1.84    0.07    0.02    0.02    0.03    0.02    0.03    0.03    0.03    0.02    6.75    5.65    0.00    1.24    0.00    5.51    0.00
 1987 072    98     0     0     0.0   22.0   21.7    0.3    7.06    1.41    1.43    1.67    1.36    1.77    1.87    2.21    1.87    0.09    0.02    0.02    0.03    0.02    0.03    0.03    0.03    0.02    7.26    6.09    0.00    1.31    0.00    5.94    0.00
 1987 079   105     0     0     0.0   22.4   22.2    0.3    7.36    1.37    1.46    1.72    1.39    1.81    1.91    2.25    1.91    0.04    0.02    0.02    0.03    0.02    0.02    0.03    0.03    0.02    7.76    6.56    0.00    1.37    0.00    6.39    0.00
 1987 086   112     0     0     0.0   22.9   22.6    0.3    7.58    1.34    1.48    1.76    1.42    1.85    1.95    2.30    1.94    0.04    0.02    0.02    0.03    0.02    0.02    0.03    0.03    0.02    8.24    6.99    0.00    1.42    0.00    6.82    0.00
 1987 093   119     0     0     0.0   23.6   23.2    0.4    3.61    3.61    1.50    1.80    1.44    1.88    1.99    2.35    1.98    0.33    0.02    0.02    0.03    0.02    0.02    0.03    0.03    0.02    9.28    7.61    0.00    1.71    0.00    7.57    0.00
 1987 100   126     0     0     0.0   25.1   24.2    0.8    3.90    3.73    2.03    1.76    1.47    1.89    1.99    2.35    1.98    0.51    0.36    0.02    0.02    0.02    0.02    0.03    0.03    0.02   11.21    8.62    0.00    2.19    0.00    9.02    0.00
 1987 107   133     0     0     0.0   26.4   25.7    0.7    6.11    4.06    2.00    1.75    1.49    1.91    2.01    2.37    2.00    0.23    0.34    0.03    0.02    0.01    0.02    0.02    0.03    0.02   12.93   10.15    0.00    2.54    0.00   10.38    0.00
 1987 114   140     0     0     0.0   27.5   27.0    0.6    6.95    4.56    2.04    1.78    1.51    1.94    2.04    2.41    2.03    0.10    0.31    0.02    0.02    0.01    0.02    0.02    0.03    0.02   14.28   11.36    0.00    2.78    0.00   11.50    0.00
 1987 121   147     0     0     0.0   28.8   28.2    0.6    7.84    4.99    2.07    1.81    1.54    1.98    2.08    2.45    2.06    0.21    0.28    0.02    0.02    0.01    0.02    0.02    0.03    0.02   15.75   12.56    0.00    3.03    0.00   12.72    0.00
 1987 128   154     0     0     0.0   29.9   29.3    0.6    8.85    5.33    2.10    1.84    1.56    2.01    2.11    2.49    2.09    0.25    0.25    0.02    0.02    0.01    0.02    0.02    0.03    0.02   17.11   13.71    0.00    3.26    0.00   13.85    0.00
 1987 135   161     0     0     0.0   31.3   30.5    0.8    6.18    4.60    3.69    2.52    1.63    2.01    2.11    2.48    2.09    0.33    0.35    0.05    0.03    0.01    0.02    0.02    0.03    0.02   18.74   14.89    0.00    3.52    0.00   15.22    0.00
 1987 142   168     0     0     0.0   32.5   31.9    0.6    7.25    5.09    3.76    2.57    1.65    2.04    2.15    2.52    2.12    0.14    0.30    0.05    0.03    0.01    0.02    0.02    0.03    0.02   20.20   16.29    0.00    3.72    0.00   16.48    0.00
 1987 149   175     0     0     0.0   33.7   33.0    0.7    1.42    3.27    4.22    3.83    3.06    2.75    2.51    2.59    2.13    0.17    0.33    0.06    0.04    0.02    0.02    0.02    0.03    0.02   21.56   17.41    0.00    3.90    0.00   17.66    0.00
 1987 156   182     0     0     0.7   34.4   33.6    0.8    6.58    3.42    3.67    3.29    2.69    2.46    2.41    2.65    2.35    0.32    0.33    0.05    0.04    0.02    0.03    0.03    0.03    0.02   23.16   18.69    0.00    4.10    0.00   19.06    0.00
 1987 163   189     0     0     0.7   35.7   34.6    1.0    4.80    4.42    4.27    3.48    2.66    2.44    2.39    2.63    2.34    0.55    0.44    0.06    0.03    0.02    0.03    0.03    0.03    0.02   24.66   19.77    0.00    4.30    0.00   20.36    0.00
 1987 170   196     0     0     0.7   37.0   36.0    1.0    4.55    4.28    4.36    3.82    3.02    2.61    2.53    2.70    2.32    0.51    0.46    0.06    0.04    0.02    0.03    0.03    0.03    0.02   26.19   21.10    0.00    4.50    0.00   21.69    0.00
 1987 177   203     0     0     2.4   36.6   35.6    1.0    5.66    3.20    3.62    3.63    3.26    2.87    2.66    2.85    2.60    0.39    0.43    0.07    0.05    0.03    0.03    0.03    0.03    0.02   27.64   22.42    0.03    4.67    0.00   22.96    0.00
 1987 184   210     0     0     2.4   37.9   37.0    0.9    2.22    3.28    3.96    4.15    4.02    3.27    2.81    2.93    2.60    0.34    0.39    0.05    0.04    0.02    0.03    0.03    0.03    0.02   29.13   23.85    0.03    4.85    0.00   24.28    0.00
 1987 191   217     0     0     4.5   37.0   35.8    1.2    3.66    2.89    3.51    3.67    3.54    3.17    2.89    3.04    2.80    0.50    0.54    0.07    0.05    0.03    0.04    0.04    0.04    0.03   30.47   24.71    0.05    5.00    0.00   25.46    0.00
 1987 198   224     0     0     4.5   38.3   37.4    0.9    6.14    3.58    3.55    3.63    3.44    3.11    2.86    3.02    2.77    0.37    0.39    0.05    0.04    0.02    0.03    0.03    0.03    0.02   31.95   26.31    0.05    5.18    0.00   26.77    0.00
 1987 205   231     0     0     4.6   39.4   38.4    1.1    3.62    3.54    3.90    3.92    3.79    3.35    3.02    3.14    2.89    0.47    0.46    0.07    0.05    0.02    0.03    0.03    0.03    0.02   33.41   27.45    0.05    5.35    0.00   28.07    0.00
 1987 216     7     0     0     0.2   41.1   40.1    1.0    6.05    3.73    4.00    3.96    3.75    3.34    3.05    3.20    2.95    0.42    0.46    0.06    0.05    0.02    0.03    0.03    0.03    0.02    1.47    1.15    0.00    0.17    0.00    1.29    0.00
 1987 223    14     0     0     0.2   42.2   41.5    0.7    8.11    4.12    3.98    3.96    3.73    3.34    3.06    3.22    2.96    0.25    0.31    0.05    0.04    0.02    0.03    0.03    0.03    0.02    2.75    2.56    0.00    0.32    0.00    2.43    0.00
 1987 230    21     0     0     4.9   38.5   37.6    1.0    1.38    1.96    2.96    3.62    3.89    3.83    3.61    3.86    3.65    0.38    0.41    0.07    0.05    0.03    0.03    0.03    0.04    0.03    3.93    3.37    0.00    0.45    0.00    3.48    0.00
 1987 237    28     0     0     7.0   37.7   36.5    1.2    1.28    1.63    2.51    3.28    3.89    3.91    3.74    3.93    3.64    0.48    0.52    0.09    0.05    0.03    0.04    0.04    0.04    0.03    5.31    4.38    0.09    0.59    0.00    4.72    0.00
 1987 244    35     0     0     8.9   36.8   35.9    0.9    2.61    2.78    2.60    3.10    3.46    3.47    3.38    3.67    3.49    0.33    0.37    0.06    0.04    0.03    0.03    0.03    0.04    0.03    6.62    5.86    0.20    0.73    0.00    5.90    0.01
 1987 251    42     0     0     9.6   37.3   36.2    1.1    1.08    1.54    2.26    2.90    3.60    4.03    3.96    4.19    3.86    0.54    0.47    0.07    0.05    0.03    0.03    0.03    0.04    0.03    8.04    6.90    0.20    0.88    0.00    7.16    0.06
 1987 258    49     0     0    17.7   29.9   28.9    1.1    1.39    1.51    1.62    2.16    2.60    2.87    3.04    3.54    3.58    0.43    0.44    0.07    0.05    0.03    0.04    0.04    0.04    0.03    9.29    8.10    0.50    1.00    0.00    8.30    0.21
 1987 265    56     0     0    18.1   30.6   29.3    1.2    1.07    1.16    1.49    1.98    2.57    3.05    3.33    3.86    3.82    0.54    0.54    0.09    0.06    0.03    0.04    0.03    0.04    0.03   10.72    9.20    0.54    1.14    0.00    9.58    0.40
 1987 272    63     0     0    20.2   28.9   28.0    0.9    2.89    1.50    1.46    1.91    2.30    2.62    2.89    3.48    3.58    0.39    0.37    0.06    0.04    0.03    0.03    0.03    0.04    0.03   12.06   10.72    0.64    1.28    0.00   10.79    1.01
 1987 279    70     0     0    20.2   28.6   27.7    0.9    1.25    1.42    1.61    2.03    2.32    2.64    2.92    3.53    3.58    0.47    0.39    0.05    0.04    0.02    0.03    0.03    0.03    0.02   13.36   11.88    0.64    1.41    0.00   11.95    2.51
 1987 286    77     0     0    21.1   27.5   26.6    0.9    2.03    1.31    1.38    1.87    2.15    2.49    2.80    3.42    3.56    0.35    0.37    0.06    0.04    0.02    0.03    0.03    0.03    0.02   14.74   13.18    0.65    1.55    0.00   13.19    4.00
 1987 293    84     0     0    21.1   26.9   26.2    0.7    1.96    1.58    1.27    1.84    1.98    2.42    2.73    3.42    3.57    0.24    0.27    0.04    0.04    0.02    0.03    0.03    0.03    0.02   15.99   14.50    0.65    1.67    0.00   14.32    5.69
 1987 300    91     0     0    21.1   26.0   25.4    0.6    2.10    1.66    1.17    1.77    1.76    2.29    2.62    3.38    3.56    0.20    0.22    0.04    0.03    0.02    0.03    0.03    0.03    0.02   17.12   15.62    0.65    1.77    0.00   15.35    7.57
 1987 307    98     0     0    22.1   23.8   22.9    0.9    0.60    0.98    1.26    1.58    1.66    2.07    2.44    3.25    3.52    0.36    0.34    0.06    0.05    0.02    0.03    0.03    0.03    0.02   18.19   16.33    0.65    1.87    0.00   16.32    9.84
 1987 314   105     0     0    22.3   22.5   21.7    0.8    1.71    1.17    1.09    1.41    1.35    1.81    2.19    3.07    3.40    0.33    0.31    0.05    0.04    0.02    0.03    0.03    0.03    0.02   19.52   17.60    0.65    2.00    0.00   17.52   12.12
 1987 321   112     0     0    22.3   23.5   22.6    0.8    1.57    1.51    1.31    1.46    1.43    1.85    2.25    3.12    3.40    0.37    0.35    0.06    0.04    0.02    0.03    0.03    0.03    0.02   20.88   18.68    0.65    2.22    0.00   18.66   12.24
 1987 328   119     0     0    22.3   24.5   23.8    0.7    2.23    1.91    1.38    1.51    1.46    1.88    2.28    3.17    3.43    0.23    0.30    0.05    0.04    0.02    0.03    0.03    0.03    0.02   22.22   19.87    0.65    2.50    0.00   19.71   12.29
 1987 341     7     0     0     0.0   25.4   24.9    0.5    2.89    2.33    1.44    1.57    1.46    1.92    2.32    3.22    3.47    0.06    0.23    0.04    0.03    0.02    0.03    0.03    0.03    0.02    1.02    0.71    0.00    0.36    0.00    0.66    0.00
 1987 348    14     0     0     0.0   26.0   25.5    0.5    3.19    2.46    1.48    1.60    1.49    1.95    2.35    3.26    3.50    0.06    0.22    0.05    0.04    0.02    0.03    0.03    0.03    0.02    1.87    1.32    0.00    0.61    0.00    1.27    0.00
 1987 355    21     0     0     0.0   26.7   26.1    0.5    3.50    2.59    1.53    1.64    1.51    1.98    2.39    3.30    3.53    0.06    0.20    0.05    0.04    0.02    0.03    0.03    0.03    0.02    2.70    1.95    0.00    0.81    0.00    1.89    0.00
 1987 362    28     0     0     0.0   27.3   26.8    0.5    3.83    2.69    1.57    1.68    1.54    2.02    2.42    3.34    3.56    0.06    0.18    0.05    0.04    0.02    0.03    0.03    0.03    0.02    3.45    2.57    0.00    0.97    0.00    2.49    0.00
 1988 004    35     0     0     0.0   27.9   27.5    0.5    4.17    2.81    1.62    1.73    1.58    2.06    2.46    3.39    3.59    0.06    0.15    0.04    0.03    0.02    0.03    0.03    0.03    0.02    4.26    3.26    0.00    1.11    0.00    3.15    0.00
 1988 011    42     0     0     0.0   28.6   28.1    0.5    4.53    2.88    1.68    1.78    1.61    2.10    2.51    3.43    3.62    0.06    0.14    0.04    0.03    0.02    0.03    0.03    0.03    0.02    5.01    3.92    0.00    1.23    0.00    3.78    0.00
 1988 018    49     0     0     0.0   29.2   28.7    0.4    4.89    2.93    1.73    1.82    1.64    2.14    2.54    3.47    3.65    0.06    0.12    0.04    0.03    0.02    0.03    0.03    0.03    0.02    5.71    4.53    0.00    1.33    0.00    4.38    0.00
 1988 025    56     0     0     0.0   29.7   29.3    0.4    5.27    2.95    1.77    1.86    1.68    2.18    2.58    3.52    3.68    0.06    0.10    0.04    0.03    0.02    0.03    0.03    0.03    0.02    6.37    5.12    0.00    1.41    0.00    4.95    0.00
 1988 032    63     0     0     0.0   30.4   30.0    0.4    5.65    2.99    1.83    1.92    1.71    2.23    2.63    3.56    3.71    0.06    0.08    0.04    0.03    0.02    0.03    0.03    0.03    0.02    7.07    5.78    0.00    1.50    0.00    5.57    0.00
 1988 039    70     0     0     0.0   30.9   30.5    0.4    6.03    2.96    1.87    1.96    1.74    2.27    2.67    3.60    3.74    0.06    0.08    0.04    0.03    0.02    0.03    0.03    0.03    0.02    7.66    6.31    0.00    1.56    0.00    6.10    0.00
 1988 046    77     0     0     0.0   31.4   31.0    0.4    6.41    2.93    1.92    2.00    1.78    2.31    2.71    3.65    3.77    0.06    0.06    0.04    0.03    0.02    0.03    0.03    0.03    0.02    8.23    6.84    0.00    1.62    0.00    6.61    0.00
 1988 053    84     0     0     0.0   31.9   31.6    0.3    6.80    2.89    1.97    2.05    1.81    2.35    2.75    3.69    3.80    0.06    0.05    0.03    0.03    0.02    0.03    0.03    0.03    0.02    8.81    7.38    0.00    1.68    0.00    7.13    0.00
 1988 060    91     0     0     0.0   32.4   32.1    0.3    7.18    2.82    2.01    2.09    1.84    2.39    2.79    3.73    3.83    0.05    0.04    0.03    0.03    0.02    0.03    0.03    0.03    0.02    9.35    7.89    0.00    1.73    0.00    7.62    0.00
 1988 067    98     0     0     0.0   32.8   32.5    0.3    7.55    2.74    2.05    2.13    1.87    2.43    2.82    3.78    3.86    0.05    0.03    0.03    0.03    0.02    0.03    0.03    0.03    0.02    9.84    8.35    0.00    1.78    0.00    8.07    0.00
 1988 074   105     0     0     0.0   33.3   33.0    0.3    7.91    2.65    2.08    2.17    1.90    2.46    2.86    3.81    3.89    0.05    0.02    0.03    0.03    0.02    0.03    0.03    0.03    0.02   10.29    8.76    0.00    1.82    0.00    8.47    0.00
 1988 081   112     0     0     0.0   33.7   33.5    0.3    8.27    2.55    2.13    2.22    1.94    2.51    2.90    3.86    3.92    0.05    0.01    0.03    0.03    0.02    0.03    0.03    0.03    0.02   10.81    9.27    0.00    1.86    0.00    8.95    0.00
 1988 088   119     0     0     0.0   34.2   33.9    0.3    8.62    2.45    2.18    2.27    1.97    2.55    2.94    3.91    3.95    0.05    0.01    0.03    0.03    0.02    0.03    0.03    0.03    0.02   11.31    9.72    0.00    1.91    0.00    9.41    0.00
 1988 095   126     0     0     0.0   34.6   34.4    0.3    8.96    2.36    2.22    2.32    2.00    2.59    2.98    3.95    3.98    0.05    0.01    0.03    0.03    0.02    0.03    0.03    0.03    0.02   11.81   10.18    0.00    1.95    0.00    9.86    0.00
 1988 102   133     0     0     0.0   35.6   35.0    0.6    2.96    5.83    2.22    2.33    2.04    2.62    3.01    3.97    3.99    0.32    0.19    0.02    0.03    0.02    0.02    0.03    0.03    0.02   13.03   10.82    0.00    2.21    0.00   10.82    0.00
 1988 109   140     0     0     0.0   36.6   36.0    0.6    4.12    5.97    2.24    2.36    2.06    2.65    3.04    4.01    4.02    0.18    0.24    0.02    0.03    0.02    0.02    0.03    0.03    0.02   14.26   11.85    0.00    2.43    0.00   11.83    0.00
 1988 116   147     0     0     0.0   37.6   37.1    0.5    5.11    6.16    2.27    2.40    2.09    2.69    3.08    4.05    4.05    0.16    0.21    0.02    0.03    0.02    0.02    0.03    0.03    0.02   15.42   12.86    0.00    2.63    0.00   12.80    0.00
 1988 123   154     0     0     0.0   38.6   37.9    0.7    2.00    4.11    4.16    3.22    2.47    2.76    3.10    4.07    4.06    0.37    0.29    0.04    0.03    0.02    0.02    0.02    0.03    0.02   16.70   13.71    0.00    2.84    0.00   13.86    0.00
 1988 130   161     0     0     0.0   39.9   39.1    0.7    2.54    4.39    4.26    3.27    2.60    2.88    3.26    4.03    4.02    0.30    0.30    0.05    0.04    0.02    0.03    0.03    0.03    0.02   18.14   14.93    0.00    3.05    0.00   15.09    0.00
 1988 137   168     0     0     0.0   41.1   40.2    1.0    4.76    4.23    4.10    3.31    2.75    2.94    3.36    4.00    3.93    0.47    0.40    0.07    0.05    0.02    0.03    0.03    0.03    0.02   19.63   15.99    0.00    3.27    0.00   16.37    0.00
 1988 144   175     0     0     0.0   42.3   41.6    0.7    7.54    4.47    4.02    3.26    2.75    2.95    3.36    3.99    3.91    0.28    0.31    0.05    0.04    0.02    0.03    0.03    0.02    0.02   21.01   17.41    0.00    3.45    0.00   17.56    0.00
 1988 151   182     0     0     1.5   42.2   41.2    0.9    4.00    3.49    4.07    3.78    3.33    3.13    3.32    4.12    4.26    0.40    0.39    0.07    0.05    0.03    0.03    0.03    0.03    0.02   22.48   18.50    0.00    3.64    0.00   18.84    0.00
 1988 158   189     0     0     7.0   37.5   36.3    1.2    0.92    1.30    2.28    3.10    3.52    3.52    3.61    4.40    4.74    0.61    0.50    0.09    0.06    0.03    0.04    0.04    0.04    0.03   23.80   19.35    0.30    3.79    0.00   20.01    0.00
 1988 165   196     0     0    12.8   32.5   31.3    1.3    1.22    1.26    1.77    2.42    2.98    3.20    3.28    3.80    3.95    0.57    0.50    0.10    0.06    0.03    0.04    0.04    0.04    0.03   25.04   20.44    0.61    3.92    0.00   21.12    0.00
 1988 172   203     0     0    16.6   29.8   28.5    1.3    1.53    1.33    1.69    2.16    2.63    2.81    2.92    3.43    3.59    0.56    0.53    0.10    0.07    0.04    0.04    0.04    0.04    0.03   26.33   21.57    0.69    4.05    0.00   22.28    0.00
 1988 179   210     0     0    16.6   31.0   30.2    0.8    3.38    2.10    1.78    2.21    2.59    2.78    2.90    3.40    3.56    0.35    0.31    0.05    0.04    0.02    0.03    0.03    0.03    0.02   27.68   23.28    0.69    4.19    0.00   23.49    0.00
 1988 186   217     0     0    16.6   32.2   31.5    0.8    4.08    2.21    2.07    2.33    2.63    2.82    2.94    3.45    3.56    0.32    0.31    0.05    0.04    0.02    0.03    0.03    0.03    0.02   29.07   24.55    0.69    4.33    0.00   24.75    0.00
 1988 193   224     0     0    16.6   33.3   32.7    0.6    4.83    2.63    2.14    2.39    2.66    2.86    2.98    3.50    3.59    0.17    0.26    0.05    0.04    0.02    0.03    0.03    0.03    0.02   30.27   25.79    0.69    4.44    0.00   25.83    0.00
 1988 200   231     0     0    17.0   34.0   33.2    0.8    1.58    1.90    2.37    2.60    2.83    3.16    3.41    3.92    3.91    0.34    0.33    0.06    0.04    0.02    0.03    0.03    0.03    0.02   31.48   26.67    0.69    4.56    0.00   26.91    0.00
 1988 207   238     0     0    19.2   32.9   32.2    0.7    5.12    2.17    2.25    2.43    2.57    2.74    2.93    3.49    3.60    0.25    0.26    0.05    0.04    0.02    0.03    0.03    0.04    0.03   32.68   27.89    0.70    4.68    0.00   28.00    0.00
 1988 216     7     0     0     0.0   34.3   33.5    0.8    3.40    3.31    2.78    2.56    2.58    2.76    2.95    3.51    3.60    0.39    0.33    0.05    0.03    0.02    0.03    0.03    0.03    0.02    1.25    0.96    0.00    0.13    0.00    1.12    0.00
 1988 223    14     0     0     0.0   35.5   34.6    0.9    3.56    3.31    3.11    2.86    2.78    2.75    2.93    3.48    3.56    0.45    0.35    0.06    0.04    0.02    0.03    0.03    0.03    0.02    2.49    2.03    0.00    0.26    0.00    2.24    0.00
 1988 230    21     0     0     0.0   36.6   35.8    0.8    6.09    3.26    3.06    2.83    2.82    2.91    2.93    3.41    3.48    0.35    0.35    0.07    0.04    0.02    0.03    0.02    0.03    0.02    3.78    3.21    0.00    0.39    0.00    3.39    0.00
 1988 237    28     0     0     0.0   37.6   37.0    0.6    3.59    4.90    3.39    2.94    2.85    2.95    2.96    3.44    3.51    0.16    0.27    0.05    0.04    0.02    0.03    0.02    0.03    0.02    4.93    4.46    0.00    0.50    0.00    4.42    0.00