
*EXP.DETAILS:Thai simulation

*GENERAL
@PEOPLE
-99
@ADDRESS
Si Saket Thailand
@SITE
Si Saket Thailand
@ PAREA  PRNO  PLEN  PLDR  PLSP  PLAY HAREA  HRNO  HLEN  HARM.........
    -99   -99   -99   -99   -99   -99   -99   -99   -99   -99
    
*TREATMENTS                        -------------FACTOR LEVELS------------
@N R O C TNAME.................... CU FL SA IC MP MI MF MR MC MT ME MH SM    
 1 1 0 0 1                          1  1  0  1  1  1  1  1  0  0  0  0  1    
 2 1 0 0 2                          1  1  0  1  1  1  2  1  0  0  0  0  1    
 3 1 0 0 3                          1  1  0  1  2  1  1  1  0  0  0  0  1    
 4 1 0 0 4                          1  1  0  1  2  1  2  1  0  0  0  0  1    
 5 1 0 0 5                          1  2  0  1  1  1  1  1  0  0  0  0  1    
 6 1 0 0 6                          1  2  0  1  1  1  2  1  0  0  0  0  1    
 7 1 0 0 7                          1  2  0  1  2  1  1  1  0  0  0  0  1    
 8 1 0 0 8                          1  2  0  1  2  1  2  1  0  0  0  0  1    
 9 1 0 0 9                          1  3  0  1  1  1  1  1  0  0  0  0  1    
10 1 0 0 10                         1  3  0  1  1  1  2  1  0  0  0  0  1    
11 1 0 0 11                         1  3  0  1  2  1  1  1  0  0  0  0  1    
12 1 0 0 12                         1  3  0  1  2  1  2  1  0  0  0  0  1    

*CULTIVARS
@C CR INGENO CNAME
 1 RI TR0001 KDML105   
    
*FIELDS
@L ID_FIELD WSTA....  FLSA  FLOB  FLDT  FLDD  FLDS  FLST SLTX  SLDP  ID_SOIL    FLNAME    
 1 sskt     sskt8601   -99     0 DR000     0     0     0 -99    100  WI_GLTH008 -99     
 2 sskt     sskt8701   -99     0 DR000     0     0     0 -99    100  WI_GLTH008 -99     
 3 sskt     sskt8801   -99     0 DR000     0     0     0 -99    100  WI_GLTH008 -99     