*GROWTH ASPECTS OUTPUT FILE

*DSSAT Cropping System Model Ver. 4.6.1.000 -release      DEC 06, 2018; 16:25:22
                                                                                
*RUN   1        : Rice component            RICER046 SSKT8601    1              
 MODEL          : RICER046 - Rice                                               
 EXPERIMENT     : SSKT8601 SQ CE-FALLOW, 30 YEARS, 15 REPS, NO N                
 DATA PATH      : C:\DSSAT46\Sequence\                                          
 TREATMENT  1   : Rice component            RICER046                            
  
!YR        Days  Days              Leaf  <--------- Dry Weight -----------> Grain Kernl              <------ Stress (0-1) ------>   Leaf  Shell  Spec  <-Canopy->  Root  <-- Root Length Density ---><Senesced Mat>   Phot  
!  and    after after  Leaf  Grow  Area  <------------ kg/Ha ------------->   per  wght  Harv Tillr  <--- Water ---->                Nit   -ing  Leaf  Hght Brdth Depth  <---- cm3/cm3 of soil -----> <--(kg/ha)-->  Therm  
!     DOY start plant   Num Stage Index  Leaf  Stem Grain  Root Panic  Crop    m2    mg  Indx   No.  Phot  Grow  Excs  Nitr Potas     %      %   Area    m     m     m    0-5  5-15 15-30 30-4545-120   Surf   Soil   Days  
@YEAR DOY   DAS   DAP  L#SD  GSTD  LAID  LWAD  SWAD  GWAD  RWAD  EWAD  CWAD  G#AD  GWGD  HIAD  T#AD  WSPD  WSGD  EWSD  NSTD  KSTD   LN%D   SH%D  SLAD  CHTD  CWID  RDPD  RL1D  RL2D  RL3D  RL4D  RL5D  SNW0C  SNW1C   DTTD  
 1986 235    52     0   0.0     0  0.00     0     0     0     0     0     0     0   0.0 0.000     6 0.000 0.000 0.000 0.000 0.000   4.40   0.00   0.0  0.00  0.00  0.05  0.00  0.00  0.00  0.00  0.00      0      0  19.58
 1986 239    56     4   0.0     0  0.00     0     0     0     0     0     0     0   0.0 0.000     6 0.000 0.000 0.000 0.000 0.000   4.40   0.00   0.0  0.00  0.00  0.11  0.00  0.00  0.00  0.00  0.00      0      0  19.19
 1986 246    63    11   2.0     1  0.00     1     0     0     0     0     1     0   0.0 0.000     6 0.000 0.000 0.000 0.000 0.000   4.45   0.00 204.8  0.00  0.00  0.31  0.79  0.14  0.08  0.00  0.00      0      0  21.41
 1986 253    70    18   5.0     1  0.00     2     0     0     1     0     2     0   0.0 0.000     6 0.000 0.000 0.000 0.000 0.000   4.66   0.00 205.0  0.00  0.00  0.55  0.77  0.14  0.08  0.00  0.00      0      0  17.37
 1986 260    77    25   6.0     1  0.01     6     0     0     3     0     6     0   0.0 0.000    17 0.000 0.000 0.000 0.000 0.000   4.89   0.00 178.8  0.00  0.00  0.80  0.75  0.14  0.08  0.00  0.00      0      1  20.90
 1986 267    84    32   8.0     2  0.02    14     2     0     8     0    16     0   0.0 0.000    21 0.000 0.000 0.000 0.000 0.000   3.20   0.00 171.6  0.00  0.00  1.04  0.74  0.15  0.08  0.00  0.00      0      4  18.24
 1986 274    91    39   9.0     2  0.06    33    19     0    16     0    52     0   0.0 0.000    31 0.000 0.000 0.000 0.000 0.000   3.04   0.00 167.1  0.00  0.00  1.20  0.74  0.17  0.09  0.01  0.01      0     10  17.99
 1986 281    98    46  11.0     3  0.11    66    65     0    29     0   132     0   0.0 0.000    39 0.000 0.000 0.000 0.300 0.000   2.22   0.00 163.6  0.00  0.00  1.20  0.76  0.21  0.11  0.02  0.03      1     12  18.70
 1986 288   105    53  12.0     3  0.14    94   129     0    43     0   223     0   0.0 0.000    28 0.000 0.000 0.000 0.264 0.000   2.06   0.00 153.2  0.00  0.00  1.20  0.78  0.25  0.13  0.03  0.04      3     12  19.25
 1986 295   112    60  13.0     3  0.19   133   232     0    64     0   364     0   0.0 0.000    21 0.000 0.000 0.000 0.261 0.000   1.81   0.00 145.5  0.00  0.00  1.20  0.82  0.31  0.16  0.05  0.07      9     12  15.30
 1986 302   119    67  14.0     3  0.21   159   363     0    87     0   522     0   0.0 0.000    17 0.000 0.000 0.000 0.224 0.000   1.57   0.00 134.5  0.00  0.00  1.20  0.85  0.37  0.19  0.07  0.10     20     12  17.10
 1986 309   126    74  15.0     4  0.22   175   535     0   113     0   710     0   0.0 0.000    14 0.000 0.000 0.000 0.236 0.000   1.37   0.00 124.7  0.00  0.00  1.20  0.93  0.46  0.21  0.08  0.13     35     12  16.40
 1986 316   133    81  15.0     5  0.21   175   392   201   130   315   882   745  42.3 0.228    13 0.000 0.000 0.000 0.000 0.000   1.43  63.87 118.6  0.00  0.00  1.20  0.91  0.55  0.24  0.10  0.15     53     32  15.95
 1986 323   140    88  15.0     5  0.20   174   451   310   139   424  1049  1148  36.9 0.296    13 0.000 0.000 0.000 0.000 0.000   1.09  73.16 113.0  0.00  0.00  1.20  0.91  0.60  0.25  0.11  0.16     73    102  14.90
 1986 330   147    95  15.0     5  0.18   174   524   391   146   505  1203  1448  34.9 0.325    13 0.000 0.000 0.000 0.000 0.000   0.80  77.46 106.1  0.00  0.00  1.20  0.88  0.66  0.26  0.12  0.17     95    177  15.45
 1986 337   154   102  15.0     5  0.17   170   568   458   149   572  1309  1696  33.7 0.350    13 0.000 0.000 0.000 0.000 0.000   0.77  80.10  99.5  0.00  0.00  1.20  0.85  0.70  0.27  0.12  0.17    119    177  12.25
 1986 339   156   104  15.0    20  0.17   170   568   458   149   572  1309  1696  33.7 0.350    13 0.000 0.000 0.000 0.000 0.000   0.77  80.10  99.5  0.00  0.00  1.20  0.84  0.71  0.27  0.12  0.17    119    177   0.00

*DSSAT Cropping System Model Ver. 4.6.1.000 -release      DEC 06, 2018; 16:25:22
                                                                                
*RUN   3        : Rice component            RICER046 SSKT8601    1              
 MODEL          : RICER046 - Rice                                               
 EXPERIMENT     : SSKT8601 SQ CE-FALLOW, 30 YEARS, 15 REPS, NO N                
 DATA PATH      : C:\DSSAT46\Sequence\                                          
 TREATMENT  1   : Rice component            RICER046                            
  
!YR        Days  Days              Leaf  <--------- Dry Weight -----------> Grain Kernl              <------ Stress (0-1) ------>   Leaf  Shell  Spec  <-Canopy->  Root  <-- Root Length Density ---><Senesced Mat>   Phot  
!  and    after after  Leaf  Grow  Area  <------------ kg/Ha ------------->   per  wght  Harv Tillr  <--- Water ---->                Nit   -ing  Leaf  Hght Brdth Depth  <---- cm3/cm3 of soil -----> <--(kg/ha)-->  Therm  
!     DOY start plant   Num Stage Index  Leaf  Stem Grain  Root Panic  Crop    m2    mg  Indx   No.  Phot  Grow  Excs  Nitr Potas     %      %   Area    m     m     m    0-5  5-15 15-30 30-4545-120   Surf   Soil   Days  
@YEAR DOY   DAS   DAP  L#SD  GSTD  LAID  LWAD  SWAD  GWAD  RWAD  EWAD  CWAD  G#AD  GWGD  HIAD  T#AD  WSPD  WSGD  EWSD  NSTD  KSTD   LN%D   SH%D  SLAD  CHTD  CWID  RDPD  RL1D  RL2D  RL3D  RL4D  RL5D  SNW0C  SNW1C   DTTD  
 1987 235    26     0   0.0     0  0.00     0     0     0     0     0     0     0   0.0 0.000     6 0.000 0.000 0.000 0.000 0.000   4.40   0.00   0.0  0.00  0.00  0.05  0.00  0.00  0.00  0.00  0.00      0      0  18.65
 1987 237    28     2   0.0     0  0.00     0     0     0     0     0     0     0   0.0 0.000     6 0.000 0.000 0.000 0.000 0.000   4.40   0.00   0.0  0.00  0.00  0.05  0.00  0.00  0.00  0.00  0.00      0      0  17.45
 1987 244    35     9   2.0     1  0.00     0     0     0     0     0     0     0   0.0 0.000     6 0.000 0.000 0.000 0.212 0.000   4.37   0.00 225.1  0.00  0.00  0.24  0.83  0.15  0.08  0.00  0.00      0      0  20.94
 1987 251    42    16   4.0     1  0.00     2     0     0     1     0     2     0   0.0 0.000     6 0.000 0.000 0.000 0.000 0.000   4.42   0.00 191.0  0.00  0.00  0.49  0.80  0.14  0.08  0.00  0.00      0      0  19.67
 1987 258    49    23   6.0     1  0.01     4     0     0     3     0     4     0   0.0 0.000    16 0.000 0.000 0.000 0.000 0.000   4.93   0.00 184.1  0.00  0.00  0.73  0.78  0.14  0.08  0.00  0.00      0      1  20.66
 1987 265    56    30   7.0     1  0.02     9     0     0     5     0     9     0   0.0 0.000    19 0.000 0.000 0.000 0.000 0.000   3.93   0.00 174.4  0.00  0.00  0.98  0.75  0.14  0.08  0.00  0.01      0      3  19.57
 1987 272    63    37   9.0     2  0.04    22    11     0    11     0    33     0   0.0 0.000    27 0.000 0.000 0.000 0.000 0.000   3.16   0.00 168.3  0.00  0.00  1.20  0.74  0.15  0.08  0.01  0.01      0      7  20.27
 1987 279    70    44  11.0     3  0.08    50    42     0    21     0    91     0   0.0 0.000    42 0.000 0.000 0.000 0.000 0.000   2.78   0.00 167.0  0.00  0.00  1.20  0.75  0.17  0.09  0.01  0.03      0      9  19.71
 1987 286    77    51  12.0     3  0.13    85   104     0    37     0   189     0   0.0 0.000    36 0.000 0.000 0.000 0.234 0.000   2.06   0.00 156.9  0.00  0.00  1.20  0.76  0.19  0.11  0.03  0.05      2      9  20.40
 1987 293    84    58  13.0     3  0.17   114   196     0    55     0   309     0   0.0 0.000    25 0.000 0.000 0.000 0.272 0.000   1.79   0.00 147.0  0.00  0.00  1.20  0.79  0.22  0.12  0.04  0.07      7      9  20.50
 1987 300    91    65  14.0     3  0.19   137   325     0    77     0   462     0   0.0 0.000    18 0.000 0.000 0.000 0.273 0.000   1.55   0.00 135.7  0.00  0.00  1.20  0.82  0.28  0.14  0.06  0.10     16      9  15.75
 1987 307    98    72  15.0     4  0.20   153   477     0   101     0   630     0   0.0 0.000    15 0.000 0.000 0.000 0.000 0.000   1.47   0.00 128.7  0.00  0.00  1.20  0.80  0.34  0.17  0.08  0.14     29      9  18.30
 1987 314   105    79  15.0     5  0.19   153   374   184   121   288   815   683  42.2 0.226    14 0.000 0.000 0.000 0.000 0.000   1.51  63.93 123.9  0.00  0.00  1.20  0.85  0.39  0.20  0.09  0.17     43     36  15.40
 1987 321   112    86  15.0     5  0.18   153   443   294   132   398   994  1090  36.5 0.296    14 0.000 0.000 0.000 0.000 0.000   1.13  73.89 118.0  0.00  0.00  1.20  0.87  0.42  0.21  0.10  0.18     59    103  19.95
 1987 328   119    93  15.0     5  0.17   152   480   376   136   480  1113  1393  34.5 0.338    14 0.000 0.000 0.000 0.000 0.000   0.88  78.34 110.1  0.00  0.00  1.20  0.86  0.45  0.22  0.11  0.19     77    173  18.70
 1987 334   125    99  15.0    20  0.16   149   485   423   136   527  1162  1568  33.6 0.365    14 0.000 0.000 0.000 0.000 0.000   0.84  80.28 106.7  0.00  0.00  1.20  0.84  0.46  0.23  0.11  0.19     89    193   0.00

*DSSAT Cropping System Model Ver. 4.6.1.000 -release      DEC 06, 2018; 16:25:22
                                                                                
*RUN   5        : Rice component            RICER046 SSKT8601    1              
 MODEL          : RICER046 - Rice                                               
 EXPERIMENT     : SSKT8601 SQ CE-FALLOW, 30 YEARS, 15 REPS, NO N                
 DATA PATH      : C:\DSSAT46\Sequence\                                          
 TREATMENT  1   : Rice component            RICER046                            
  
!YR        Days  Days              Leaf  <--------- Dry Weight -----------> Grain Kernl              <------ Stress (0-1) ------>   Leaf  Shell  Spec  <-Canopy->  Root  <-- Root Length Density ---><Senesced Mat>   Phot  
!  and    after after  Leaf  Grow  Area  <------------ kg/Ha ------------->   per  wght  Harv Tillr  <--- Water ---->                Nit   -ing  Leaf  Hght Brdth Depth  <---- cm3/cm3 of soil -----> <--(kg/ha)-->  Therm  
!     DOY start plant   Num Stage Index  Leaf  Stem Grain  Root Panic  Crop    m2    mg  Indx   No.  Phot  Grow  Excs  Nitr Potas     %      %   Area    m     m     m    0-5  5-15 15-30 30-4545-120   Surf   Soil   Days  
@YEAR DOY   DAS   DAP  L#SD  GSTD  LAID  LWAD  SWAD  GWAD  RWAD  EWAD  CWAD  G#AD  GWGD  HIAD  T#AD  WSPD  WSGD  EWSD  NSTD  KSTD   LN%D   SH%D  SLAD  CHTD  CWID  RDPD  RL1D  RL2D  RL3D  RL4D  RL5D  SNW0C  SNW1C   DTTD  
 1988 235    26     0   0.0     0  0.00     0     0     0     0     0     0     0   0.0 0.000     6 0.000 0.000 0.000 0.000 0.000   4.40   0.00   0.0  0.00  0.00  0.05  0.00  0.00  0.00  0.00  0.00      0      0  21.43
 1988 237    28     2   0.0     0  0.00     0     0     0     0     0     0     0   0.0 0.000     6 0.000 0.000 0.000 0.000 0.000   4.40   0.00   0.0  0.00  0.00  0.05  0.00  0.00  0.00  0.00  0.00      0      0  21.59
 1988 244    35     9   2.0     1  0.00     1     0     0     0     0     1     0   0.0 0.000     6 0.000 0.000 0.000 0.000 0.000   4.13   0.00 213.8  0.00  0.00  0.25  0.67  0.12  0.00  0.00  0.00      0      0  19.65
 1988 251    42    16   5.0     1  0.00     2     0     0     2     0     2     0   0.0 0.000    12 0.000 0.000 0.000 0.000 0.000   5.01   0.00 204.5  0.00  0.00  0.52  0.65  0.12  0.00  0.00  0.00      0      0  21.41
 1988 258    49    23   6.0     1  0.01     5     0     0     3     0     5     0   0.0 0.000    16 0.000 0.000 0.000 0.000 0.000   4.92   0.00 178.0  0.00  0.00  0.78  0.64  0.13  0.01  0.00  0.00      0      2  20.75
 1988 265    56    30   8.0     2  0.02    13     2     0     7     0    15     0   0.0 0.000    21 0.000 0.000 0.000 0.000 0.000   3.21   0.00 171.1  0.00  0.00  1.03  0.62  0.13  0.01  0.00  0.01      0      4  19.59
 1988 272    63    37  10.0     2  0.05    31    18     0    15     0    49     0   0.0 0.000    31 0.000 0.000 0.000 0.000 0.000   3.20   0.00 159.4  0.00  0.00  1.20  0.62  0.14  0.02  0.01  0.02      0      6  19.81
 1988 279    70    44  11.0     3  0.10    61    52     0    26     0   112     0   0.0 0.000    45 0.000 0.000 0.000 0.000 0.000   2.79   0.00 161.4  0.00  0.00  1.20  0.62  0.16  0.04  0.02  0.03      1     11  17.50
 1988 286    77    51  12.0     3  0.16   100   105     0    40     0   205     0   0.0 0.000    42 0.000 0.000 0.000 0.000 0.000   2.40   0.00 161.4  0.00  0.00  1.20  0.62  0.18  0.07  0.03  0.05      3     11  15.70
 1988 293    84    58  13.0     3  0.23   153   219     0    66     0   371     0   0.0 0.000    36 0.000 0.000 0.000 0.281 0.000   1.80   0.00 153.5  0.00  0.00  1.20  0.63  0.22  0.10  0.05  0.10      8     11  18.35
 1988 300    91    65  14.0     3  0.26   186   366     0    92     0   552     0   0.0 0.000    25 0.000 0.000 0.000 0.203 0.000   1.66   0.00 141.5  0.00  0.00  1.20  0.66  0.26  0.13  0.08  0.14     18     11  17.65
 1988 307    98    72  15.0     3  0.28   218   584     0   129     0   802     0   0.0 0.000    20 0.000 0.000 0.000 0.000 0.000   1.48   0.00 130.5  0.00  0.00  1.20  0.74  0.33  0.17  0.10  0.19     34     11  17.10
 1988 314   105    79  15.0     4  0.28   224   832     0   164     0  1056     0   0.0 0.000    17 0.000 0.000 0.000 0.000 0.000   1.37   0.00 126.1  0.00  0.00  1.20  0.72  0.42  0.21  0.14  0.23     54     11  15.40
 1988 321   112    86  15.0     5  0.27   224   596   330   182   488  1308  1224  39.9 0.253    17 0.000 0.000 0.000 0.000 0.000   1.24  67.65 121.1  0.00  0.00  1.20  0.69  0.49  0.24  0.16  0.26     77     78  17.50
 1988 328   119    93  15.0     5  0.26   223   711   451   195   609  1544  1671  36.5 0.292    17 0.000 0.000 0.000 0.000 0.000   0.91  74.07 114.8  0.00  0.00  1.20  0.67  0.55  0.27  0.17  0.27    102    177  15.95
 1988 335   126   100  15.0     5  0.24   223   790   550   201   708  1721  2038  34.8 0.320    17 0.000 0.000 0.000 0.000 0.000   0.77  77.69 106.8  0.00  0.00  1.20  0.65  0.59  0.28  0.18  0.28    130    236  13.20
 1988 341   132   106  15.0    20  0.23   218   818   603   202   761  1797  2232  34.1 0.335    17 0.000 0.000 0.000 0.000 0.000   0.78  79.23 103.6  0.00  0.00  1.20  0.63  0.62  0.29  0.19  0.28    147    236   0.00

*DSSAT Cropping System Model Ver. 4.6.1.000 -release      DEC 06, 2018; 16:25:22
                                                                                
*RUN   7        : Rice component            RICER046 SSKT8601    1              
 MODEL          : RICER046 - Rice                                               
 EXPERIMENT     : SSKT8601 SQ CE-FALLOW, 30 YEARS, 15 REPS, NO N                
 DATA PATH      : C:\DSSAT46\Sequence\                                          
 TREATMENT  1   : Rice component            RICER046                            
  
!YR        Days  Days              Leaf  <--------- Dry Weight -----------> Grain Kernl              <------ Stress (0-1) ------>   Leaf  Shell  Spec  <-Canopy->  Root  <-- Root Length Density ---><Senesced Mat>   Phot  
!  and    after after  Leaf  Grow  Area  <------------ kg/Ha ------------->   per  wght  Harv Tillr  <--- Water ---->                Nit   -ing  Leaf  Hght Brdth Depth  <---- cm3/cm3 of soil -----> <--(kg/ha)-->  Therm  
!     DOY start plant   Num Stage Index  Leaf  Stem Grain  Root Panic  Crop    m2    mg  Indx   No.  Phot  Grow  Excs  Nitr Potas     %      %   Area    m     m     m    0-5  5-15 15-30 30-4545-120   Surf   Soil   Days  
@YEAR DOY   DAS   DAP  L#SD  GSTD  LAID  LWAD  SWAD  GWAD  RWAD  EWAD  CWAD  G#AD  GWGD  HIAD  T#AD  WSPD  WSGD  EWSD  NSTD  KSTD   LN%D   SH%D  SLAD  CHTD  CWID  RDPD  RL1D  RL2D  RL3D  RL4D  RL5D  SNW0C  SNW1C   DTTD  
 1989 235    26     0   0.0     0  0.00     0     0     0     0     0     0     0   0.0 0.000     6 0.000 0.000 0.000 0.000 0.000   4.40   0.00   0.0  0.00  0.00  0.05  0.00  0.00  0.00  0.00  0.00      0      0  17.78
 1989 237    28     2   0.0     0  0.00     0     0     0     0     0     0     0   0.0 0.000     6 0.000 0.000 0.000 0.000 0.000   4.40   0.00   0.0  0.00  0.00  0.05  0.00  0.00  0.00  0.00  0.00      0      0  20.12
 1989 244    35     9   2.0     1  0.00     0     0     0     0     0     0     0   0.0 0.000     6 0.000 0.000 0.000 0.000 0.000   4.42   0.00 224.4  0.00  0.00  0.25  0.85  0.15  0.08  0.00  0.00      0      0  21.24
 1989 251    42    16   4.0     1  0.00     2     0     0     1     0     2     0   0.0 0.000     6 0.000 0.000 0.000 0.000 0.000   4.41   0.00 191.9  0.00  0.00  0.50  0.82  0.15  0.08  0.00  0.00      0      0  17.67
 1989 258    49    23   6.0     1  0.01     4     0     0     2     0     4     0   0.0 0.000    14 0.000 0.000 0.000 0.000 0.000   4.86   0.00 189.4  0.00  0.00  0.74  0.80  0.15  0.08  0.00  0.00      0      1  18.46
 1989 265    56    30   7.0     1  0.02    10     0     0     6     0    10     0   0.0 0.000    18 0.000 0.000 0.000 0.000 0.000   3.92   0.00 175.5  0.00  0.00  0.98  0.78  0.15  0.08  0.00  0.01      0      3  19.21
 1989 272    63    37   9.0     2  0.04    25    13     0    12     0    38     0   0.0 0.000    27 0.000 0.000 0.000 0.000 0.000   3.24   0.00 168.4  0.00  0.00  1.20  0.77  0.16  0.09  0.01  0.01      0      7  20.29
 1989 279    70    44  11.0     3  0.09    53    47     0    23     0   100     0   0.0 0.000    44 0.000 0.000 0.000 0.000 0.000   2.93   0.00 172.0  0.00  0.00  1.20  0.77  0.17  0.10  0.02  0.03      0     15  19.90
 1989 286    77    51  12.0     3  0.17   103   114     0    41     0   216     0   0.0 0.000    42 0.000 0.000 0.000 0.000 0.000   2.40   0.00 163.2  0.00  0.00  1.20  0.78  0.21  0.13  0.03  0.05      1     18  17.65
 1989 293    84    58  13.0     3  0.28   175   254     0    75     0   429     0   0.0 0.000    37 0.000 0.000 0.000 0.000 0.000   1.89   0.00 158.1  0.00  0.00  1.20  0.81  0.28  0.16  0.06  0.09      6     18  16.50
 1989 300    91    65  14.0     3  0.33   225   459     0   114     0   684     0   0.0 0.000    28 0.000 0.000 0.000 0.248 0.000   1.59   0.00 146.7  0.00  0.00  1.20  0.83  0.36  0.22  0.09  0.15     16     18  18.70
 1989 307    98    72  15.0     4  0.34   254   687     0   150     0   941     0   0.0 0.000    22 0.000 0.000 0.000 0.210 0.000   1.43   0.00 134.9  0.00  0.00  1.20  0.80  0.45  0.27  0.13  0.21     34     18  17.40
 1989 314   105    79  15.0     5  0.33   254   576   267   188   429  1260   990  43.4 0.212    19 0.000 0.000 0.000 0.000 0.000   1.37  62.27 128.8  0.00  0.00  1.20  0.77  0.55  0.32  0.18  0.27     55     32  18.70
 1989 321   112    86  15.0     5  0.31   253   716   431   208   593  1562  1595  37.2 0.276    19 0.000 0.000 0.000 0.000 0.000   0.98  72.65 122.7  0.00  0.00  1.20  0.75  0.61  0.35  0.20  0.30     80    137  17.55
 1989 328   119    93  15.0     5  0.29   253   858   541   221   703  1815  2005  35.1 0.298    19 0.000 0.170 0.000 0.000 0.000   0.75  76.96 115.0  0.00  0.00  1.20  0.72  0.66  0.37  0.22  0.32    107    217  13.55
 1989 335   126   100  15.0     6  0.27   248   917   640   225   802  1967  2369  33.8 0.325    19 0.072 0.382 0.000 0.000 0.000   0.70  79.79 108.8  0.00  0.00  1.20  0.70  0.68  0.38  0.23  0.34    134    217  12.60
 1989 336   127   101  15.0    20  0.27   248   917   640   225   802  1967  2369  33.8 0.325    19 0.133 0.422 0.000 0.000 0.000   0.70  79.79 108.8  0.00  0.00  1.20  0.69  0.69  0.38  0.24  0.34    134    217   0.00

*DSSAT Cropping System Model Ver. 4.6.1.000 -release      DEC 06, 2018; 16:25:22
                                                                                
*RUN   9        : Rice component            RICER046 SSKT8601    1              
 MODEL          : RICER046 - Rice                                               
 EXPERIMENT     : SSKT8601 SQ CE-FALLOW, 30 YEARS, 15 REPS, NO N                
 DATA PATH      : C:\DSSAT46\Sequence\                                          
 TREATMENT  1   : Rice component            RICER046                            
  
!YR        Days  Days              Leaf  <--------- Dry Weight -----------> Grain Kernl              <------ Stress (0-1) ------>   Leaf  Shell  Spec  <-Canopy->  Root  <-- Root Length Density ---><Senesced Mat>   Phot  
!  and    after after  Leaf  Grow  Area  <------------ kg/Ha ------------->   per  wght  Harv Tillr  <--- Water ---->                Nit   -ing  Leaf  Hght Brdth Depth  <---- cm3/cm3 of soil -----> <--(kg/ha)-->  Therm  
!     DOY start plant   Num Stage Index  Leaf  Stem Grain  Root Panic  Crop    m2    mg  Indx   No.  Phot  Grow  Excs  Nitr Potas     %      %   Area    m     m     m    0-5  5-15 15-30 30-4545-120   Surf   Soil   Days  
@YEAR DOY   DAS   DAP  L#SD  GSTD  LAID  LWAD  SWAD  GWAD  RWAD  EWAD  CWAD  G#AD  GWGD  HIAD  T#AD  WSPD  WSGD  EWSD  NSTD  KSTD   LN%D   SH%D  SLAD  CHTD  CWID  RDPD  RL1D  RL2D  RL3D  RL4D  RL5D  SNW0C  SNW1C   DTTD  
 1990 235    26     0   0.0     0  0.00     0     0     0     0     0     0     0   0.0 0.000     6 0.000 0.000 0.000 0.000 0.000   4.40   0.00   0.0  0.00  0.00  0.05  0.00  0.00  0.00  0.00  0.00      0      0  21.23
 1990 237    28     2   0.0     0  0.00     0     0     0     0     0     0     0   0.0 0.000     6 0.000 0.000 0.000 0.000 0.000   4.40   0.00   0.0  0.00  0.00  0.05  0.00  0.00  0.00  0.00  0.00      0      0  18.98
 1990 244    35     9   2.0     1  0.00     0     0     0     0     0     0     0   0.0 0.000     6 0.000 0.000 0.000 0.000 0.000   4.46   0.00 227.5  0.00  0.00  0.22  0.76  0.13  0.08  0.00  0.00      0      0  20.56
 1990 251    42    16   4.0     1  0.00     2     0     0     1     0     2     0   0.0 0.000     6 0.000 0.000 0.000 0.000 0.000   4.44   0.00 192.5  0.00  0.00  0.47  0.74  0.13  0.08  0.00  0.00      0      0  20.52
 1990 258    49    23   6.0     1  0.01     4     0     0     3     0     4     0   0.0 0.000    16 0.000 0.000 0.000 0.000 0.000   4.89   0.00 186.2  0.00  0.00  0.72  0.72  0.13  0.08  0.00  0.00      0      1  18.91
 1990 265    56    30   7.0     1  0.02    10     0     0     6     0    10     0   0.0 0.000    19 0.000 0.000 0.000 0.000 0.000   4.04   0.00 173.9  0.00  0.00  0.96  0.70  0.13  0.08  0.00  0.01      0      4  20.96
 1990 272    63    37   9.0     2  0.03    20    10     0    11     0    30     0   0.0 0.000    23 0.000 0.000 0.000 0.378 0.000   2.29   0.00 159.0  0.00  0.00  1.20  0.68  0.13  0.09  0.01  0.02      0      5  17.59
 1990 279    70    44  10.0     3  0.03    24    24     0    14     0    48     0   0.0 0.000    19 0.000 0.000 0.000 0.477 0.000   2.11   0.00 144.3  0.00  0.00  1.20  0.67  0.14  0.09  0.01  0.02      1      5  19.32
 1990 286    77    51  12.0     3  0.04    28    43     0    17     0    71     0   0.0 0.000    13 0.000 0.000 0.000 0.388 0.000   1.94   0.00 133.5  0.00  0.00  1.20  0.65  0.14  0.09  0.01  0.02      3      5  15.90
 1990 293    84    58  13.0     3  0.05    37    65     0    21     0   102     0   0.0 0.000    11 0.000 0.000 0.000 0.000 0.000   2.07   0.00 128.0  0.00  0.00  1.20  0.64  0.15  0.09  0.01  0.03      5      5  18.30
 1990 300    91    65  14.0     3  0.07    52   116     0    31     0   168     0   0.0 0.000    10 0.000 0.000 0.000 0.000 0.000   1.67   0.00 126.1  0.00  0.00  1.20  0.65  0.17  0.10  0.02  0.04      9      5  17.45
 1990 307    98    72  15.0     4  0.07    61   183     0    42     0   244     0   0.0 0.000     9 0.000 0.000 0.000 0.000 0.000   1.46   0.00 118.4  0.00  0.00  1.20  0.66  0.20  0.11  0.03  0.05     15      5  19.60
 1990 314   105    79  15.0     5  0.07    61   146    63    49   103   310   232  44.4 0.202     9 0.000 0.000 0.000 0.000 0.000   1.57  60.77 113.7  0.00  0.00  1.20  0.65  0.22  0.12  0.03  0.06     21     12  12.95
 1990 321   112    86  15.0     5  0.07    61   185    83    52   123   369   307  40.2 0.225     9 0.000 0.000 0.000 0.000 0.000   1.21  67.22 108.8  0.00  0.00  1.20  0.64  0.23  0.12  0.04  0.07     28     38  16.60
 1990 328   119    93  15.0     5  0.06    61   200   124    55   165   426   461  35.8 0.292     9 0.000 0.000 0.000 0.000 0.000   0.94  75.48 102.5  0.00  0.00  1.20  0.64  0.24  0.13  0.04  0.07     36     67  16.75
 1990 335   126   100  15.0     5  0.06    61   217   154    56   195   472   571  34.1 0.326     9 0.000 0.000 0.000 0.000 0.000   0.77  79.22  94.5  0.00  0.00  1.20  0.61  0.25  0.13  0.04  0.07     45     87  13.10
 1990 338   129   103  15.0    20  0.06    59   217   159    56   200   476   590  33.8 0.334     9 0.000 0.000 0.000 0.000 0.000   0.78  79.76  95.2  0.00  0.00  1.20  0.60  0.26  0.13  0.04  0.07     46     87   0.00

*DSSAT Cropping System Model Ver. 4.6.1.000 -release      DEC 06, 2018; 16:25:23
                                                                                
*RUN  11        : Rice component            RICER046 SSKT8601    1              
 MODEL          : RICER046 - Rice                                               
 EXPERIMENT     : SSKT8601 SQ CE-FALLOW, 30 YEARS, 15 REPS, NO N                
 DATA PATH      : C:\DSSAT46\Sequence\                                          
 TREATMENT  1   : Rice component            RICER046                            
  
!YR        Days  Days              Leaf  <--------- Dry Weight -----------> Grain Kernl              <------ Stress (0-1) ------>   Leaf  Shell  Spec  <-Canopy->  Root  <-- Root Length Density ---><Senesced Mat>   Phot  
!  and    after after  Leaf  Grow  Area  <------------ kg/Ha ------------->   per  wght  Harv Tillr  <--- Water ---->                Nit   -ing  Leaf  Hght Brdth Depth  <---- cm3/cm3 of soil -----> <--(kg/ha)-->  Therm  
!     DOY start plant   Num Stage Index  Leaf  Stem Grain  Root Panic  Crop    m2    mg  Indx   No.  Phot  Grow  Excs  Nitr Potas     %      %   Area    m     m     m    0-5  5-15 15-30 30-4545-120   Surf   Soil   Days  
@YEAR DOY   DAS   DAP  L#SD  GSTD  LAID  LWAD  SWAD  GWAD  RWAD  EWAD  CWAD  G#AD  GWGD  HIAD  T#AD  WSPD  WSGD  EWSD  NSTD  KSTD   LN%D   SH%D  SLAD  CHTD  CWID  RDPD  RL1D  RL2D  RL3D  RL4D  RL5D  SNW0C  SNW1C   DTTD  
 1991 235    26     0   0.0     0  0.00     0     0     0     0     0     0     0   0.0 0.000     6 0.000 0.000 0.000 0.000 0.000   4.40   0.00   0.0  0.00  0.00  0.05  0.00  0.00  0.00  0.00  0.00      0      0  18.61
 1991 237    28     2   0.0     0  0.00     0     0     0     0     0     0     0   0.0 0.000     6 0.000 0.000 0.000 0.000 0.000   4.40   0.00   0.0  0.00  0.00  0.05  0.00  0.00  0.00  0.00  0.00      0      0  19.77
 1991 244    35     9   2.0     1  0.00     0     0     0     0     0     0     0   0.0 0.000     6 0.000 0.000 0.000 0.229 0.000   4.64   0.00 228.5  0.00  0.00  0.23  0.79  0.14  0.08  0.00  0.00      0      0  20.70
 1991 251    42    16   4.0     1  0.00     2     0     0     1     0     2     0   0.0 0.000     6 0.000 0.000 0.000 0.000 0.000   4.42   0.00 190.0  0.00  0.00  0.48  0.76  0.13  0.08  0.00  0.00      0      0  19.46
 1991 258    49    23   6.0     1  0.01     4     0     0     2     0     4     0   0.0 0.000    15 0.000 0.000 0.000 0.000 0.000   4.30   0.00 185.1  0.00  0.00  0.72  0.74  0.13  0.08  0.00  0.00      0      1  19.77
 1991 265    56    30   7.0     1  0.01     8     0     0     5     0     8     0   0.0 0.000    17 0.000 0.000 0.000 0.000 0.000   3.91   0.00 150.5  0.00  0.00  0.97  0.72  0.13  0.08  0.00  0.01      0      2  18.86
 1991 272    63    37   9.0     2  0.02    16     7     0     8     0    23     0   0.0 0.000    23 0.000 0.000 0.000 0.000 0.000   2.98   0.00 149.4  0.00  0.00  1.20  0.70  0.13  0.08  0.01  0.01      0      2  19.42
 1991 279    70    44  10.0     3  0.03    22    19     0    11     0    41     0   0.0 0.000    21 0.000 0.000 0.000 0.429 0.000   2.12   0.00 138.4  0.00  0.00  1.20  0.69  0.14  0.08  0.01  0.02      1      2  18.40
 1991 286    77    51  12.0     3  0.03    24    33     0    13     0    57     0   0.0 0.000    14 0.000 0.000 0.000 0.451 0.000   1.86   0.00 125.4  0.00  0.00  1.20  0.67  0.14  0.08  0.01  0.02      3      2  19.05
 1991 293    84    58  13.0     3  0.03    29    53     0    17     0    82     0   0.0 0.000    11 0.000 0.000 0.000 0.000 0.000   2.07   0.00 117.8  0.00  0.00  1.20  0.66  0.14  0.08  0.01  0.02      5      2  18.20
 1991 300    91    65  14.0     3  0.05    40    85     0    23     0   125     0   0.0 0.000    10 0.000 0.000 0.000 0.000 0.000   1.85   0.00 129.2  0.00  0.00  1.20  0.65  0.16  0.08  0.01  0.03      8     10  17.35
 1991 307    98    72  15.0     3  0.06    50   143     0    33     0   192     0   0.0 0.000    10 0.000 0.000 0.000 0.000 0.000   1.47   0.00 124.2  0.00  0.00  1.20  0.64  0.19  0.09  0.02  0.04     11     10  16.30