*PLANT N OUTPUT FILE

*DSSAT Cropping System Model Ver. 4.6.1.000 -release      DEC 06, 2018; 16:25:22
                                                                                
*RUN   1        : Rice component            RICER046 SSKT8601    1              
 MODEL          : RICER046 - Rice                                               
 EXPERIMENT     : SSKT8601 SQ CE-FALLOW, 30 YEARS, 15 REPS, NO N                
 DATA PATH      : C:\DSSAT46\Sequence\                                          
 TREATMENT  1   : Rice component            RICER046                            
  
@YEAR DOY   DAS   DAP  CNAD  GNAD  VNAD  GN%D  VN%D  NUPC  LNAD  SNAD  LN%D  SN%D  SHND  RN%D  SNN0C  SNN1C                                 
 1986 235    52     0   0.0   0.0   0.0  0.00  4.40   0.0   0.0   0.0  4.40  4.40  0.00  2.20   0.00   0.00
 1986 239    56     4   0.0   0.0   0.0  0.00  4.40   0.0   0.0   0.0  4.40  4.40  0.00  2.20   0.00   0.00
 1986 246    63    11   0.0   0.0   0.0  0.00  4.45   0.0   0.0   0.0  4.45  4.45  0.00  1.15   0.00   0.00
 1986 253    70    18   0.1   0.0   0.1  0.00  4.66   0.1   0.1   0.0  4.66  4.66  0.00  1.05   0.00   0.00
 1986 260    77    25   0.3   0.0   0.3  0.00  4.89   0.3   0.3   0.0  4.89  4.89  0.00  1.07   0.00   0.01
 1986 267    84    32   0.5   0.0   0.5  0.00  3.20   0.6   0.4   0.1  3.20  3.20  0.00  1.06   0.00   0.04
 1986 274    91    39   1.6   0.0   1.6  0.00  3.04   1.7   1.0   0.6  3.04  3.04  0.00  1.03   0.00   0.10
 1986 281    98    46   2.9   0.0   2.9  0.00  2.22   3.2   1.5   1.5  2.22  2.22  0.00  0.87   0.02   0.12
 1986 288   105    53   4.6   0.0   4.6  0.00  2.06   5.0   1.9   2.7  2.06  2.06  0.00  0.88   0.08   0.12
 1986 295   112    60   6.6   0.0   6.6  0.00  1.81   7.2   2.4   4.2  1.81  1.81  0.00  0.87   0.21   0.12
 1986 302   119    67   8.2   0.0   8.2  0.00  1.57   9.0   2.5   5.7  1.57  1.57  0.00  0.85   0.42   0.12
 1986 309   126    74   9.7   0.0   9.7  0.00  1.37  10.7   2.4   7.3  1.37  1.37  0.00  0.84   0.71   0.12
 1986 316   133    81  10.7   2.5   8.1  0.81  1.43  12.0   2.5   5.6  1.43  1.43  0.00  1.01   1.03   0.31
 1986 323   140    88  10.6   3.8   6.8  0.90  1.09  12.1   1.9   4.9  1.09  1.09  0.00  1.02   1.36   1.02
 1986 330   147    95  10.6   5.0   5.6  0.99  0.80  12.2   1.4   4.2  0.80  0.80  0.00  1.02   1.71   1.78
 1986 337   154   102  11.7   6.0   5.7  1.05  0.77  13.3   1.3   4.3  0.77  0.77  0.00  1.02   2.07   1.78
 1986 339   156   104  11.7   6.0   5.7  1.05  0.77  13.3   1.3   4.3  0.77  0.77  0.00  1.02   2.07   1.78

*DSSAT Cropping System Model Ver. 4.6.1.000 -release      DEC 06, 2018; 16:25:22
                                                                                
*RUN   3        : Rice component            RICER046 SSKT8601    1              
 MODEL          : RICER046 - Rice                                               
 EXPERIMENT     : SSKT8601 SQ CE-FALLOW, 30 YEARS, 15 REPS, NO N                
 DATA PATH      : C:\DSSAT46\Sequence\                                          
 TREATMENT  1   : Rice component            RICER046                            
  
@YEAR DOY   DAS   DAP  CNAD  GNAD  VNAD  GN%D  VN%D  NUPC  LNAD  SNAD  LN%D  SN%D  SHND  RN%D  SNN0C  SNN1C                                 
 1987 235    26     0   0.0   0.0   0.0  0.00  4.40  13.3   0.0   0.0  4.40  4.40  0.00  2.20   0.00   0.00
 1987 237    28     2   0.0   0.0   0.0  0.00  4.40  13.3   0.0   0.0  4.40  4.40  0.00  2.20   0.00   0.00
 1987 244    35     9   0.0   0.0   0.0  0.00  4.37  13.3   0.0   0.0  4.37  4.37  0.00  1.20   0.00   0.00
 1987 251    42    16   0.1   0.0   0.1  0.00  4.42  13.4   0.1   0.0  4.42  4.42  0.00  1.18   0.00   0.00
 1987 258    49    23   0.2   0.0   0.2  0.00  4.93  13.6   0.2   0.0  4.93  4.93  0.00  1.08   0.00   0.01
 1987 265    56    30   0.4   0.0   0.4  0.00  3.93  13.7   0.4   0.0  3.93  3.93  0.00  1.06   0.00   0.03
 1987 272    63    37   1.0   0.0   1.0  0.00  3.16  14.5   0.7   0.3  3.16  3.16  0.00  1.05   0.00   0.07
 1987 279    70    44   2.5   0.0   2.5  0.00  2.78  16.1   1.4   1.2  2.78  2.78  0.00  1.01   0.01   0.09
 1987 286    77    51   3.9   0.0   3.9  0.00  2.06  17.5   1.8   2.1  2.06  2.06  0.00  0.86   0.06   0.09
 1987 293    84    58   5.6   0.0   5.6  0.00  1.79  19.3   2.0   3.5  1.79  1.79  0.00  0.84   0.17   0.09
 1987 300    91    65   7.2   0.0   7.2  0.00  1.55  21.1   2.1   5.0  1.55  1.55  0.00  0.82   0.34   0.09
 1987 307    98    72   9.3   0.0   9.3  0.00  1.47  23.5   2.3   7.0  1.47  1.47  0.00  0.92   0.58   0.09
 1987 314   105    79  10.9   2.9   8.0  1.01  1.51  25.5   2.3   5.6  1.51  1.51  0.00  1.01   0.85   0.36
 1987 321   112    86  10.8   4.1   6.7  1.02  1.13  25.6   1.7   5.0  1.13  1.13  0.00  1.02   1.13   1.04
 1987 328   119    93  10.8   5.2   5.5  1.08  0.88  25.6   1.3   4.2  0.88  0.88  0.00  1.02   1.42   1.75
 1987 334   125    99  11.2   5.9   5.3  1.11  0.84  26.0   1.2   4.1  0.84  0.84  0.00  1.02   1.59   1.96

*DSSAT Cropping System Model Ver. 4.6.1.000 -release      DEC 06, 2018; 16:25:22
                                                                                
*RUN   5        : Rice component            RICER046 SSKT8601    1              
 MODEL          : RICER046 - Rice                                               
 EXPERIMENT     : SSKT8601 SQ CE-FALLOW, 30 YEARS, 15 REPS, NO N                
 DATA PATH      : C:\DSSAT46\Sequence\                                          
 TREATMENT  1   : Rice component            RICER046                            
  
@YEAR DOY   DAS   DAP  CNAD  GNAD  VNAD  GN%D  VN%D  NUPC  LNAD  SNAD  LN%D  SN%D  SHND  RN%D  SNN0C  SNN1C                                 
 1988 235    26     0   0.0   0.0   0.0  0.00  4.40  26.0   0.0   0.0  4.40  4.40  0.00  2.20   0.00   0.00
 1988 237    28     2   0.0   0.0   0.0  0.00  4.40  26.0   0.0   0.0  4.40  4.40  0.00  2.20   0.00   0.00
 1988 244    35     9   0.0   0.0   0.0  0.00  4.13  26.1   0.0   0.0  4.13  4.13  0.00  1.13   0.00   0.00
 1988 251    42    16   0.1   0.0   0.1  0.00  5.01  26.1   0.1   0.0  5.01  5.01  0.00  1.07   0.00   0.00
 1988 258    49    23   0.3   0.0   0.3  0.00  4.92  26.3   0.3   0.0  4.92  4.92  0.00  1.07   0.00   0.02
 1988 265    56    30   0.5   0.0   0.5  0.00  3.21  26.6   0.4   0.1  3.21  3.21  0.00  1.05   0.00   0.04
 1988 272    63    37   1.6   0.0   1.6  0.00  3.20  27.8   1.0   0.6  3.20  3.20  0.00  1.07   0.01   0.06
 1988 279    70    44   3.1   0.0   3.1  0.00  2.79  29.4   1.7   1.4  2.79  2.79  0.00  1.00   0.03   0.11
 1988 286    77    51   4.9   0.0   4.9  0.00  2.40  31.4   2.4   2.5  2.40  2.40  0.00  1.00   0.09   0.11
 1988 293    84    58   6.7   0.0   6.7  0.00  1.80  33.3   2.8   3.9  1.80  1.80  0.00  0.84   0.20   0.11
 1988 300    91    65   9.2   0.0   9.2  0.00  1.66  36.0   3.1   6.1  1.66  1.66  0.00  0.87   0.41   0.11
 1988 307    98    72  11.9   0.0  11.9  0.00  1.48  39.1   3.2   8.7  1.48  1.48  0.00  0.89   0.72   0.11
 1988 314   105    79  14.5   0.0  14.5  0.00  1.37  42.0   3.1  11.4  1.37  1.37  0.00  0.92   1.10   0.11
 1988 321   112    86  15.1   4.9  10.2  1.01  1.24  43.1   2.8   7.4  1.24  1.24  0.00  1.02   1.50   0.77
 1988 328   119    93  15.0   6.5   8.5  1.07  0.91  43.2   2.0   6.5  0.91  0.91  0.00  1.02   1.92   1.78
 1988 335   126   100  15.8   8.0   7.8  1.13  0.77  44.1   1.7   6.1  0.77  0.77  0.00  1.02   2.35   2.38
 1988 341   132   106  16.8   8.7   8.1  1.15  0.78  45.1   1.7   6.4  0.78  0.78  0.00  1.02   2.60   2.38

*DSSAT Cropping System Model Ver. 4.6.1.000 -release      DEC 06, 2018; 16:25:22
                                                                                
*RUN   7        : Rice component            RICER046 SSKT8601    1              
 MODEL          : RICER046 - Rice                                               
 EXPERIMENT     : SSKT8601 SQ CE-FALLOW, 30 YEARS, 15 REPS, NO N                
 DATA PATH      : C:\DSSAT46\Sequence\                                          
 TREATMENT  1   : Rice component            RICER046                            
  
@YEAR DOY   DAS   DAP  CNAD  GNAD  VNAD  GN%D  VN%D  NUPC  LNAD  SNAD  LN%D  SN%D  SHND  RN%D  SNN0C  SNN1C                                 
 1989 235    26     0   0.0   0.0   0.0  0.00  4.40  45.1   0.0   0.0  4.40  4.40  0.00  2.20   0.00   0.00
 1989 237    28     2   0.0   0.0   0.0  0.00  4.40  45.1   0.0   0.0  4.40  4.40  0.00  2.20   0.00   0.00
 1989 244    35     9   0.0   0.0   0.0  0.00  4.42  45.2   0.0   0.0  4.42  4.42  0.00  1.18   0.00   0.00
 1989 251    42    16   0.1   0.0   0.1  0.00  4.41  45.2   0.1   0.0  4.41  4.41  0.00  1.09   0.00   0.00
 1989 258    49    23   0.2   0.0   0.2  0.00  4.86  45.3   0.2   0.0  4.86  4.86  0.00  1.06   0.00   0.01
 1989 265    56    30   0.4   0.0   0.4  0.00  3.92  45.6   0.4   0.0  3.92  3.92  0.00  1.07   0.00   0.03
 1989 272    63    37   1.2   0.0   1.2  0.00  3.24  46.5   0.8   0.4  3.24  3.24  0.00  1.07   0.00   0.07
 1989 279    70    44   2.9   0.0   2.9  0.00  2.93  48.3   1.6   1.4  2.93  2.93  0.00  1.06   0.01   0.15
 1989 286    77    51   5.2   0.0   5.2  0.00  2.40  50.7   2.5   2.7  2.40  2.40  0.00  1.01   0.03   0.19
 1989 293    84    58   8.1   0.0   8.1  0.00  1.89  53.9   3.3   4.8  1.89  1.89  0.00  0.90   0.13   0.19
 1989 300    91    65  10.9   0.0  10.9  0.00  1.59  57.0   3.6   7.3  1.59  1.59  0.00  0.84   0.35   0.19
 1989 307    98    72  13.5   0.0  13.5  0.00  1.43  59.9   3.6   9.8  1.43  1.43  0.00  0.86   0.67   0.19
 1989 314   105    79  15.4   4.0  11.4  0.93  1.37  62.5   3.5   7.9  1.37  1.37  0.00  1.02   1.06   0.31
 1989 321   112    86  15.3   5.8   9.5  0.98  0.98  62.7   2.5   7.0  0.98  0.98  0.00  1.02   1.46   1.37
 1989 328   119    93  15.7   7.4   8.3  1.06  0.75  63.3   1.9   6.4  0.75  0.75  0.00  1.02   1.89   2.18
 1989 335   126   100  17.0   8.8   8.2  1.10  0.70  64.6   1.7   6.5  0.70  0.70  0.00  1.01   2.27   2.18
 1989 336   127   101  17.0   8.8   8.2  1.10  0.70  64.6   1.7   6.5  0.70  0.70  0.00  1.01   2.27   2.18

*DSSAT Cropping System Model Ver. 4.6.1.000 -release      DEC 06, 2018; 16:25:22
                                                                                
*RUN   9        : Rice component            RICER046 SSKT8601    1              
 MODEL          : RICER046 - Rice                                               
 EXPERIMENT     : SSKT8601 SQ CE-FALLOW, 30 YEARS, 15 REPS, NO N                
 DATA PATH      : C:\DSSAT46\Sequence\                                          
 TREATMENT  1   : Rice component            RICER046                            
  
@YEAR DOY   DAS   DAP  CNAD  GNAD  VNAD  GN%D  VN%D  NUPC  LNAD  SNAD  LN%D  SN%D  SHND  RN%D  SNN0C  SNN1C                                 
 1990 235    26     0   0.0   0.0   0.0  0.00  4.40  64.6   0.0   0.0  4.40  4.40  0.00  2.20   0.00   0.00
 1990 237    28     2   0.0   0.0   0.0  0.00  4.40  64.6   0.0   0.0  4.40  4.40  0.00  2.20   0.00   0.00
 1990 244    35     9   0.0   0.0   0.0  0.00  4.46  64.6   0.0   0.0  4.46  4.46  0.00  1.22   0.00   0.00
 1990 251    42    16   0.1   0.0   0.1  0.00  4.44  64.7   0.1   0.0  4.44  4.44  0.00  1.11   0.00   0.00
 1990 258    49    23   0.2   0.0   0.2  0.00  4.89  64.8   0.2   0.0  4.89  4.89  0.00  1.06   0.00   0.01
 1990 265    56    30   0.4   0.0   0.4  0.00  4.04  65.1   0.4   0.0  4.04  4.04  0.00  1.07   0.00   0.04
 1990 272    63    37   0.7   0.0   0.7  0.00  2.29  65.4   0.5   0.2  2.29  2.29  0.00  0.85   0.01   0.05
 1990 279    70    44   1.0   0.0   1.0  0.00  2.11  65.7   0.5   0.5  2.11  2.11  0.00  0.84   0.02   0.05
 1990 286    77    51   1.4   0.0   1.4  0.00  1.94  66.1   0.5   0.8  1.94  1.94  0.00  0.83   0.06   0.05
 1990 293    84    58   2.1   0.0   2.1  0.00  2.07  66.9   0.8   1.4  2.07  2.07  0.00  0.95   0.11   0.05
 1990 300    91    65   2.8   0.0   2.8  0.00  1.67  67.7   0.9   1.9  1.67  1.67  0.00  0.88   0.20   0.05
 1990 307    98    72   3.6   0.0   3.6  0.00  1.46  68.5   0.9   2.7  1.46  1.46  0.00  0.88   0.31   0.05
 1990 314   105    79   4.3   1.0   3.2  1.01  1.57  69.4   1.0   2.3  1.57  1.57  0.00  1.02   0.43   0.12
 1990 321   112    86   4.3   1.3   3.0  1.05  1.21  69.4   0.7   2.2  1.21  1.21  0.00  1.02   0.56   0.39
 1990 328   119    93   4.2   1.8   2.5  1.08  0.94  69.5   0.6   1.9  0.94  0.94  0.00  1.02   0.70   0.67
 1990 335   126   100   4.4   2.2   2.1  1.14  0.77  69.6   0.5   1.7  0.77  0.77  0.00  1.02   0.84   0.88
 1990 338   129   103   4.5   2.3   2.2  1.14  0.78  69.7   0.5   1.7  0.78  0.78  0.00  1.02   0.86   0.88

*DSSAT Cropping System Model Ver. 4.6.1.000 -release      DEC 06, 2018; 16:25:23
                                                                                
*RUN  11        : Rice component            RICER046 SSKT8601    1              
 MODEL          : RICER046 - Rice                                               
 EXPERIMENT     : SSKT8601 SQ CE-FALLOW, 30 YEARS, 15 REPS, NO N                
 DATA PATH      : C:\DSSAT46\Sequence\                                          
 TREATMENT  1   : Rice component            RICER046                            
  
@YEAR DOY   DAS   DAP  CNAD  GNAD  VNAD  GN%D  VN%D  NUPC  LNAD  SNAD  LN%D  SN%D  SHND  RN%D  SNN0C  SNN1C                                 
 1991 235    26     0   0.0   0.0   0.0  0.00  4.40  69.7   0.0   0.0  4.40  4.40  0.00  2.20   0.00   0.00
 1991 237    28     2   0.0   0.0   0.0  0.00  4.40  69.7   0.0   0.0  4.40  4.40  0.00  2.20   0.00   0.00
 1991 244    35     9   0.0   0.0   0.0  0.00  4.64  69.7   0.0   0.0  4.64  4.64  0.00  1.25   0.00   0.00
 1991 251    42    16   0.1   0.0   0.1  0.00  4.42  69.8   0.1   0.0  4.42  4.42  0.00  1.15   0.00   0.00
 1991 258    49    23   0.2   0.0   0.2  0.00  4.30  69.9   0.2   0.0  4.30  4.30  0.00  0.95   0.00   0.01
 1991 265    56    30   0.3   0.0   0.3  0.00  3.91  70.1   0.3   0.0  3.91  3.91  0.00  1.05   0.00   0.02
 1991 272    63    37   0.7   0.0   0.7  0.00  2.98  70.5   0.5   0.2  2.98  2.98  0.00  0.99   0.01   0.02
 1991 279    70    44   0.9   0.0   0.9  0.00  2.12  70.7   0.5   0.4  2.12  2.12  0.00  0.83   0.03   0.02
 1991 286    77    51   1.1   0.0   1.1  0.00  1.86  70.9   0.5   0.6  1.86  1.86  0.00  0.80   0.07   0.02
 1991 293    84    58   1.7   0.0   1.7  0.00  2.07  71.6   0.6   1.1  2.07  2.07  0.00  0.97   0.12   0.02
 1991 300    91    65   2.3   0.0   2.3  0.00  1.85  72.2   0.7   1.6  1.85  1.85  0.00  1.00   0.18   0.10
 1991 307    98    72   2.8   0.0   2.8  0.00  1.47  72.8   0.7   2.1  1.47  1.47  0.00  0.89   0.26   0.10
 1991 314   105    79   3.5   0.0   3.5  0.00  1.39  73.6   0.7   2.8  1.39  1.39  0.00  0.95   0.35   0.10
 1991 321   112    86   3.9   1.2   2.7  1.20  1.28  73.7   0.6   2.1  1.28  1.28  0.00  1.02   0.44   0.30
 1991 328   119    93   4.3   1.6   2.7  1.21  1.14  73.8   0.6   2.1  1.14  1.14  0.00  1.02   0.54   0.54
 1991 335   126   100   4.7   2.0   2.7  1.25  1.09  73.8   0.5   2.1  1.09  1.09  0.00  1.02   0.65   0.80
 1991 339   130   104   4.8   2.2   2.7  1.25  1.08  73.8   0.5   2.1  1.08  1.08  0.00  1.02   0.68   0.87

*DSSAT Cropping System Model Ver. 4.6.1.000 -release      DEC 06, 2018; 16:25:23
                                                                                
*RUN  13        : Rice component            RICER046 SSKT8601    1              
 MODEL          : RICER046 - Rice                                               
 EXPERIMENT     : SSKT8601 SQ CE-FALLOW, 30 YEARS, 15 REPS, NO N                
 DATA PATH      : C:\DSSAT46\Sequence\                                          
 TREATMENT  1   : Rice component            RICER046                            
  
@YEAR DOY   DAS   DAP  CNAD  GNAD  VNAD  GN%D  VN%D  NUPC  LNAD  SNAD  LN%D  SN%D  SHND  RN%D  SNN0C  SNN1C                                 
 1992 235    26     0   0.0   0.0   0.0  0.00  4.40  73.8   0.0   0.0  4.40  4.40  0.00  2.20   0.00   0.00
 1992 237    28     2   0.0   0.0   0.0  0.00  4.40  73.8   0.0   0.0  4.40  4.40  0.00  2.20   0.00   0.00
 1992 244    35     9   0.0   0.0   0.0  0.00  4.43  73.8   0.0   0.0  4.43  4.43  0.00  1.21   0.00   0.00
 1992 251    42    16   0.1   0.0   0.1  0.00  4.42  73.9   0.1   0.0  4.42  4.42  0.00  1.14   0.00   0.00
 1992 258    49    23   0.2   0.0   0.2  0.00  4.77  74.0   0.2   0.0  4.77  4.77  0.00  1.05   0.00   0.01
 1992 265    56    30   0.4   0.0   0.4  0.00  3.95  74.2   0.4   0.0  3.95  3.95  0.00  1.05   0.00   0.03
 1992 272    63    37   0.5   0.0   0.5  0.00  2.14  74.4   0.3   0.2  2.14  2.14  0.00  0.81   0.00   0.04
 1992 279    70    44   0.7   0.0   0.7  0.00  1.93  74.6   0.4   0.4  1.93  1.93  0.00  0.79   0.02   0.04
 1992 286    77    51   1.3   0.0   1.3  0.00  2.28  75.2   0.5   0.8  2.28  2.28  0.00  0.95   0.05   0.04
 1992 293    84    58   1.9   0.0   1.9  0.00  1.94  75.8   0.7   1.2  1.94  1.94  0.00  0.90   0.09   0.04
 1992 300    91    65   2.4   0.0   2.4  0.00  1.75  76.4   0.8   1.6  1.75  1.75  0.00  0.90   0.16   0.04
 1992 307    98    72   3.2   0.0   3.2  0.00  1.62  77.3   0.9   2.3  1.62  1.62  0.00  0.95   0.25   0.04
 1992 314   105    79   3.9   0.0   3.9  0.00  1.47  78.1   0.8   3.1  1.47  1.47  0.00  0.98   0.36   0.04
 1992 321   112    86   4.5   1.3   3.3  1.17  1.45  78.6   0.8   2.5  1.45  1.45  0.00  1.02   0.47   0.19
 1992 328   119    93   4.8   1.7   3.1  1.21  1.21  78.6   0.7   2.5  1.21  1.21  0.00  1.02   0.58   0.46
 1992 335   126   100   5.2   2.1   3.1  1.26  1.11  78.7   0.6   2.5  1.11  1.11  0.00  1.02   0.70   0.75
 1992 342   133   107   5.5   2.5   3.0  1.30  1.03  78.7   0.6   2.5  1.03  1.03  0.00  1.02   0.81   1.00
 1992 343   134   108   5.5   2.5   3.0  1.30  1.03  78.7   0.6   2.5  1.03  1.03  0.00  1.02   0.81   1.00

*DSSAT Cropping System Model Ver. 4.6.1.000 -release      DEC 06, 2018; 16:25:23
                                                                                
*RUN  15        : Rice component            RICER046 SSKT8601    1              
 MODEL          : RICER046 - Rice                                               
 EXPERIMENT     : SSKT8601 SQ CE-FALLOW, 30 YEARS, 15 REPS, NO N                
 DATA PATH      : C:\DSSAT46\Sequence\                                          
 TREATMENT  1   : Rice component            RICER046                            
  
@YEAR DOY   DAS   DAP  CNAD  GNAD  VNAD  GN%D  VN%D  NUPC  LNAD  SNAD  LN%D  SN%D  SHND  RN%D  SNN0C  SNN1C                                 
 1993 235    26     0   0.0   0.0   0.0  0.00  4.40  78.7   0.0   0.0  4.40  4.40  0.00  2.20   0.00   0.00
 1993 237    28     2   0.0   0.0   0.0  0.00  4.40  78.7   0.0   0.0  4.40  4.40  0.00  2.20   0.00   0.00
 1993 244    35     9   0.0   0.0   0.0  0.00  4.39  78.7   0.0   0.0  4.39  4.39  0.00  1.15   0.00   0.00
 1993 251    42    16   0.1   0.0   0.1  0.00  4.40  78.8   0.1   0.0  4.40  4.40  0.00  1.10   0.00   0.00
 1993 258    49    23   0.2   0.0   0.2  0.00  4.92  78.9   0.2   0.0  4.92  4.92  0.00  1.07   0.00   0.01
 1993 265    56    30   0.4   0.0   0.4  0.00  4.06  79.1   0.4   0.0  4.06  4.06  0.00  1.08   0.00   0.03
 1993 272    63    37   1.2   0.0   1.2  0.00  3.25  80.0   0.8   0.4  3.25  3.25  0.00  1.07   0.00   0.07
 1993 279    70    44   2.6   0.0   2.6  0.00  2.68  81.5   1.4   1.2  2.68  2.68  0.00  0.99   0.01   0.13
 1993 286    77    51   3.9   0.0   3.9  0.00  1.96  82.9   1.7   2.2  1.96  1.96  0.00  0.82   0.04   0.13
 1993 293    84    58   6.5   0.0   6.5  0.00  1.98  85.7   2.4   4.1  1.98  1.98  0.00  0.94   0.14   0.13
 1993 300    91    65   9.7   0.0   9.7  0.00  1.76  89.3   3.1   6.6  1.76  1.76  0.00  0.96   0.32   0.13
 1993 307    98    72  13.3   0.0  13.3  0.00  1.56  93.3   3.4   9.9  1.56  1.56  0.00  0.98   0.59   0.13
 1993 314   105    79  16.4   4.0  12.3  1.00  1.58  96.9   3.6   8.7  1.58  1.58  0.00  1.00   0.89   0.26
 1993 321   112    86  16.3   5.8  10.5  1.03  1.13  97.1   2.6   7.9  1.13  1.13  0.00  1.02   1.21   1.28
 1993 328   119    93  16.2   7.4   8.8  1.08  0.87  97.2   2.0   6.8  0.87  0.87  0.00  1.02   1.56   2.39
 1993 335   126   100  16.9   8.7   8.2  1.12  0.79  98.0   1.8   6.5  0.79  0.79  0.00  1.02   1.87   3.03
 1993 336   127   101  16.9   8.7   8.2  1.12  0.79  98.0   1.8   6.5  0.79  0.79  0.00  1.02   1.87   3.03

*DSSAT Cropping System Model Ver. 4.6.1.000 -release      DEC 06, 2018; 16:25:23
                                                                                
*RUN  17        : Rice component            RICER046 SSKT8601    1              
 MODEL          : RICER046 - Rice                                               
 EXPERIMENT     : SSKT8601 SQ CE-FALLOW, 30 YEARS, 15 REPS, NO N                
 DATA PATH      : C:\DSSAT46\Sequence\                                          
 TREATMENT  1   : Rice component            RICER046                            
  
@YEAR DOY   DAS   DAP  CNAD  GNAD  VNAD  GN%D  VN%D  NUPC  LNAD  SNAD  LN%D  SN%D  SHND  RN%D  SNN0C  SNN1C                                 
 1994 235    26     0   0.0   0.0   0.0  0.00  4.40  98.0   0.0   0.0  4.40  4.40  0.00  2.20   0.00   0.00
 1994 237    28     2   0.0   0.0   0.0  0.00  4.40  98.0   0.0   0.0  4.40  4.40  0.00  2.20   0.00   0.00
 1994 244    35     9   0.0   0.0   0.0  0.00  1.96  98.0   0.0   0.0  1.96  1.96  0.00  1.38   0.00   0.00
 1994 251    42    16   0.0   0.0   0.0  0.00  2.36  98.0   0.0   0.0  2.36  2.36  0.00  0.60   0.00   0.00
 1994 258    49    23   0.0   0.0   0.0  0.00  2.54  98.0   0.0   0.0  2.54  2.54  0.00  0.68   0.00   0.00
 1994 265    56    30   0.1   0.0   0.1  0.00  4.00  98.1   0.1   0.0  4.00  4.00  0.00  1.10   0.00   0.00
 1994 272    63    37   0.3   0.0   0.3  0.00  3.09  98.3   0.2   0.1  3.09  3.09  0.00  1.03   0.01   0.01
 1994 279    70    44   0.5   0.0   0.5  0.00  2.35  98.5   0.2   0.3  2.35  2.35  0.00  0.88   0.01   0.01
 1994 286    77    51   0.9   0.0   0.9  0.00  2.48  99.0   0.3   0.6  2.48  2.48  0.00  1.05   0.03   0.01
 1994 293    84    58   1.4   0.0   1.4  0.00  2.00  99.5   0.5   0.9  2.00  2.00  0.00  0.95   0.05   0.04
 1994 300    91    65   1.7   0.0   1.7  0.00  1.58  99.8   0.5   1.2  1.58  1.58  0.00  0.82   0.08   0.04
 1994 307    98    72   2.0   0.0   2.0  0.00  1.42 100.2   0.5   1.5  1.42  1.42  0.00  0.82   0.13   0.04
 1994 314   105    79   2.5   0.0   2.5  0.00  1.34 100.7   0.5   2.0  1.34  1.34  0.00  0.87   0.18   0.04
 1994 321   112    86   2.9   0.8   2.0  0.99  1.35 100.9   0.5   1.6  1.35  1.35  0.00  1.02   0.25   0.16
 1994 328   119    93   3.1   1.1   2.0  1.03  1.26 100.9   0.4   1.6  1.26  1.26  0.00  1.02   0.31   0.33
 1994 335   126   100   3.5   1.4   2.0  1.10  1.21 100.9   0.4   1.6  1.21  1.21  0.00  1.02   0.38   0.52
 1994 337   128   102   3.5   1.4   2.0  1.10  1.21 100.9   0.4   1.6  1.21  1.21  0.00  1.02   0.38   0.52

*DSSAT Cropping System Model Ver. 4.6.1.000 -release      DEC 06, 2018; 16:25:23
                                                                                
*RUN  19        : Rice component            RICER046 SSKT8601    1              
 MODEL          : RICER046 - Rice                                               
 EXPERIMENT     : SSKT8601 SQ CE-FALLOW, 30 YEARS, 15 REPS, NO N                
 DATA PATH      : C:\DSSAT46\Sequence\                                          
 TREATMENT  1   : Rice component            RICER046                            
  
@YEAR DOY   DAS   DAP  CNAD  GNAD  VNAD  GN%D  VN%D  NUPC  LNAD  SNAD  LN%D  SN%D  SHND  RN%D  SNN0C  SNN1C                                 
 1995 235    26     0   0.0   0.0   0.0  0.00  4.40 100.9   0.0   0.0  4.40  4.40  0.00  2.20   0.00   0.00
 1995 237    28     2   0.0   0.0   0.0  0.00  4.40 100.9   0.0   0.0  4.40  4.40  0.00  2.20   0.00   0.00
 1995 244    35     9   0.0   0.0   0.0  0.00  4.27 100.9   0.0   0.0  4.27  4.27  0.00  1.18   0.00   0.00
 1995 251    42    16   0.1   0.0   0.1  0.00  4.43 101.0   0.1   0.0  4.43  4.43  0.00  1.15   0.00   0.00
 1995 258    49    23   0.2   0.0   0.2  0.00  4.85 101.2   0.2   0.0  4.85  4.85  0.00  1.07   0.00   0.01
 1995 265    56    30   0.4   0.0   0.4  0.00  3.81 101.4   0.4   0.0  3.81  3.81  0.00  1.05   0.00   0.04
 1995 272    63    37   1.2   0.0   1.2  0.00  3.13 102.2   0.8   0.4  3.13  3.13  0.00  1.03   0.01   0.06
 1995 279    70    44   2.5   0.0   2.5  0.00  2.78 103.7   1.4   1.2  2.78  2.78  0.00  1.01   0.02   0.06
 1995 286    77    51   3.8   0.0   3.8  0.00  2.02 105.0   1.8   2.0  2.02  2.02  0.00  0.85   0.08   0.06
 1995 293    84    58   4.8   0.0   4.8  0.00  1.62 106.1   1.8   3.0  1.62  1.62  0.00  0.76   0.20   0.06
 1995 300    91    65   5.9   0.0   5.9  0.00  1.47 107.4   1.8   4.1  1.47  1.47  0.00  0.76   0.38   0.06
 1995 307    98    72   7.6   0.0   7.6  0.00  1.50 109.3   2.0   5.6  1.50  1.50  0.00  0.92   0.61   0.06
 1995 314   105    79   9.2   2.2   7.0  0.98  1.59 111.1   2.1   4.9  1.59  1.59  0.00  1.02   0.87   0.21
 1995 321   112    86   9.1   3.2   5.9  1.02  1.18 111.2   1.6   4.4  1.18  1.18  0.00  1.02   1.15   0.77
 1995 328   119    93   9.1   4.1   4.9  1.08  0.89 111.3   1.2   3.8  0.89  0.89  0.00  1.02   1.43   1.37
 1995 335   126   100   9.7   5.0   4.7  1.13  0.80 111.9   1.0   3.6  0.80  0.80  0.00  1.02   1.72   1.72
 1995 337   128   102   9.7   5.0   4.7  1.13  0.80 111.9   1.0   3.6  0.80  0.80  0.00  1.02   1.72   1.72

*DSSAT Cropping System Model Ver. 4.6.1.000 -release      DEC 06, 2018; 16:25:24
                                                                                
*RUN  21        : Rice component            RICER046 SSKT8601    1              
 MODEL          : RICER046 - Rice                                               
 EXPERIMENT     : SSKT8601 SQ CE-FALLOW, 30 YEARS, 15 REPS, NO N                
 DATA PATH      : C:\DSSAT46\Sequence\                                          
 TREATMENT  1   : Rice component            RICER046                            
  
@YEAR DOY   DAS   DAP  CNAD  GNAD  VNAD  GN%D  VN%D  NUPC  LNAD  SNAD  LN%D  SN%D  SHND  RN%D  SNN0C  SNN1C                                 
 1996 235    26     0   0.0   0.0   0.0  0.00  4.40 111.9   0.0   0.0  4.40  4.40  0.00  2.20   0.00   0.00
 1996 237    28     2   0.0   0.0   0.0  0.00  4.40 111.9   0.0   0.0  4.40  4.40  0.00  2.20   0.00   0.00
 1996 244    35     9   0.0   0.0   0.0  0.00  4.43 112.0   0.0   0.0  4.43  4.43  0.00  1.17   0.00   0.00
 1996 251    42    16   0.1   0.0   0.1  0.00  4.42 112.0   0.1   0.0  4.42  4.42  0.00  1.12   0.00   0.00
 1996 258    49    23   0.2   0.0   0.2  0.00  4.70 112.1   0.2   0.0  4.70  4.70  0.00  1.04   0.00   0.01
 1996 265    56    30   0.3   0.0   0.3  0.00  3.94 112.3   0.3   0.0  3.94  3.94  0.00  1.04   0.00   0.03
 1996 272    63    37   0.6   0.0   0.6  0.00  2.61 112.7   0.4   0.2  2.61  2.61  0.00  0.91   0.00   0.05
 1996 279    70    44   0.9   0.0   0.9  0.00  2.03 112.9   0.4   0.4  2.03  2.03  0.00  0.81   0.02   0.05
 1996 286    77    51   1.2   0.0   1.2  0.00  1.91 113.2   0.5   0.7  1.91  1.91  0.00  0.82   0.05   0.05
 1996 293    84    58   1.7   0.0   1.7  0.00  1.88 113.8   0.6   1.2  1.88  1.88  0.00  0.89   0.09   0.05
 1996 300    91    65   2.3   0.0   2.3  0.00  1.81 114.5   0.7   1.6  1.81  1.81  0.00  0.98   0.15   0.05
 1996 307    98    72   2.9   0.0   2.9  0.00  1.61 115.2   0.7   2.2  1.61  1.61  0.00  1.03   0.22   0.14
 1996 314   105    79   3.2   0.8   2.4  1.07  1.56 115.5   0.7   1.7  1.56  1.56  0.00  1.02   0.30   0.32
 1996 321   112    86   3.5   1.2   2.4  1.13  1.34 115.5   0.6   1.8  1.34  1.34  0.00  1.02   0.38   0.52
 1996 328   119    93   3.9   1.5   2.4  1.18  1.22 115.5   0.5   1.8  1.22  1.22  0.00  1.02   0.47   0.73
 1996 335   126   100   4.1   1.8   2.4  1.21  1.17 115.5   0.5   1.8  1.17  1.17  0.00  1.02   0.55   0.92
 1996 336   127   101   4.1   1.8   2.4  1.21  1.17 115.5   0.5   1.8  1.17  1.17  0.00  1.02   0.55   0.92

*DSSAT Cropping System Model Ver. 4.6.1.000 -release      DEC 06, 2018; 16:25:24
                                                                                
*RUN  23        : Rice component            RICER046 SSKT8601    1              
 MODEL          : RICER046 - Rice                                               
 EXPERIMENT     : SSKT8601 SQ CE-FALLOW, 30 YEARS, 15 REPS, NO N                
 DATA PATH      : C:\DSSAT46\Sequence\                                          
 TREATMENT  1   : Rice component            RICER046                            
  
@YEAR DOY   DAS   DAP  CNAD  GNAD  VNAD  GN%D  VN%D  NUPC  LNAD  SNAD  LN%D  SN%D  SHND  RN%D  SNN0C  SNN1C                                 
 1997 235    26     0   0.0   0.0   0.0  0.00  4.40 115.5   0.0   0.0  4.40  4.40  0.00  2.20   0.00   0.00
 1997 237    28     2   0.0   0.0   0.0  0.00  4.40 115.5   0.0   0.0  4.40  4.40  0.00  2.20   0.00   0.00
 1997 244    35     9   0.0   0.0   0.0  0.00  4.45 115.5   0.0   0.0  4.45  4.45  0.00  1.21   0.00   0.00
 1997 251    42    16   0.1   0.0   0.1  0.00  4.41 115.6   0.1   0.0  4.41  4.41  0.00  1.15   0.00   0.00
 1997 258    49    23   0.2   0.0   0.2  0.00  4.98 115.8   0.2   0.0  4.98  4.98  0.00  1.08   0.00   0.01
 1997 265    56    30   0.4   0.0   0.4  0.00  3.68 116.0   0.4   0.0  3.68  3.68  0.00  1.04   0.00   0.04
 1997 272    63    37   0.7   0.0   0.7  0.00  2.31 116.3   0.5   0.2  2.31  2.31  0.00  0.84   0.01   0.05
 1997 279    70    44   0.9   0.0   0.9  0.00  1.86 116.5   0.4   0.4  1.86  1.86  0.00  0.77   0.03   0.05